
---------- Begin Simulation Statistics ----------
sim_seconds                                  2.935802                       # Number of seconds simulated
sim_ticks                                2935801616000                       # Number of ticks simulated
final_tick                               2935801616000                       # Number of ticks from beginning of simulation (restored from checkpoints and never reset)
sim_freq                                 1000000000000                       # Frequency of simulated ticks
host_inst_rate                                  43312                       # Simulator instruction rate (inst/s)
host_op_rate                                    46389                       # Simulator op (including micro ops) rate (op/s)
host_tick_rate                               40952508                       # Simulator tick rate (ticks/s)
host_mem_usage                                4412732                       # Number of bytes of host memory used
host_seconds                                 71687.96                       # Real time elapsed on the host
sim_insts                                  3104980752                       # Number of instructions simulated
sim_ops                                    3325512507                       # Number of ops (including micro ops) simulated
system.voltage_domain.voltage                       1                       # Voltage in Volts
system.clk_domain.clock                           625                       # Clock period in ticks
system.mem_ctrls.pwrStateResidencyTicks::UNDEFINED 2935801616000                       # Cumulative time (in ticks) in various power states
system.mem_ctrls.bytes_read::.cpu.inst         342016                       # Number of bytes read from this memory
system.mem_ctrls.bytes_read::.cpu.data     1153358400                       # Number of bytes read from this memory
system.mem_ctrls.bytes_read::total         1153700416                       # Number of bytes read from this memory
system.mem_ctrls.bytes_inst_read::.cpu.inst       342016                       # Number of instructions bytes read from this memory
system.mem_ctrls.bytes_inst_read::total        342016                       # Number of instructions bytes read from this memory
system.mem_ctrls.bytes_written::.writebacks    665080640                       # Number of bytes written to this memory
system.mem_ctrls.bytes_written::total       665080640                       # Number of bytes written to this memory
system.mem_ctrls.num_reads::.cpu.inst            5344                       # Number of read requests responded to by this memory
system.mem_ctrls.num_reads::.cpu.data        18021225                       # Number of read requests responded to by this memory
system.mem_ctrls.num_reads::total            18026569                       # Number of read requests responded to by this memory
system.mem_ctrls.num_writes::.writebacks     10391885                       # Number of write requests responded to by this memory
system.mem_ctrls.num_writes::total           10391885                       # Number of write requests responded to by this memory
system.mem_ctrls.bw_read::.cpu.inst            116498                       # Total read bandwidth from this memory (bytes/s)
system.mem_ctrls.bw_read::.cpu.data         392859788                       # Total read bandwidth from this memory (bytes/s)
system.mem_ctrls.bw_read::total             392976286                       # Total read bandwidth from this memory (bytes/s)
system.mem_ctrls.bw_inst_read::.cpu.inst       116498                       # Instruction read bandwidth from this memory (bytes/s)
system.mem_ctrls.bw_inst_read::total           116498                       # Instruction read bandwidth from this memory (bytes/s)
system.mem_ctrls.bw_write::.writebacks      226541411                       # Write bandwidth from this memory (bytes/s)
system.mem_ctrls.bw_write::total            226541411                       # Write bandwidth from this memory (bytes/s)
system.mem_ctrls.bw_total::.writebacks      226541411                       # Total bandwidth to/from this memory (bytes/s)
system.mem_ctrls.bw_total::.cpu.inst           116498                       # Total bandwidth to/from this memory (bytes/s)
system.mem_ctrls.bw_total::.cpu.data        392859788                       # Total bandwidth to/from this memory (bytes/s)
system.mem_ctrls.bw_total::total            619517697                       # Total bandwidth to/from this memory (bytes/s)
system.mem_ctrls.avgPriority_.writebacks::samples  10391865.00                       # Average QoS priority value for accepted requests
system.mem_ctrls.avgPriority_.cpu.inst::samples      5346.00                       # Average QoS priority value for accepted requests
system.mem_ctrls.avgPriority_.cpu.data::samples  18004154.00                       # Average QoS priority value for accepted requests
system.mem_ctrls.priorityMinLatency      0.000000017492                       # per QoS priority minimum request to response latency (s)
system.mem_ctrls.priorityMaxLatency      0.093403077652                       # per QoS priority maximum request to response latency (s)
system.mem_ctrls.numReadWriteTurnArounds       578535                       # Number of turnarounds from READ to WRITE
system.mem_ctrls.numWriteReadTurnArounds       578535                       # Number of turnarounds from WRITE to READ
system.mem_ctrls.numStayReadState            45559734                       # Number of times bus staying in READ state
system.mem_ctrls.numStayWriteState            9894962                       # Number of times bus staying in WRITE state
system.mem_ctrls.readReqs                    18026571                       # Number of read requests accepted
system.mem_ctrls.writeReqs                   10391885                       # Number of write requests accepted
system.mem_ctrls.readBursts                  18026571                       # Number of DRAM read bursts, including those serviced by the write queue
system.mem_ctrls.writeBursts                 10391885                       # Number of DRAM write bursts, including those merged in the write queue
system.mem_ctrls.bytesReadDRAM             1152608000                       # Total number of bytes read from DRAM
system.mem_ctrls.bytesReadWrQ                 1092544                       # Total number of bytes read from write queue
system.mem_ctrls.bytesWritten               665075328                       # Total number of bytes written to DRAM
system.mem_ctrls.bytesReadSys              1153700544                       # Total read bytes from the system interface side
system.mem_ctrls.bytesWrittenSys            665080640                       # Total written bytes from the system interface side
system.mem_ctrls.servicedByWrQ                  17071                       # Number of DRAM read bursts serviced by the write queue
system.mem_ctrls.mergedWrBursts                    20                       # Number of DRAM write bursts merged with an existing one
system.mem_ctrls.neitherReadNorWriteReqs            0                       # Number of requests that are neither read nor write
system.mem_ctrls.perBankRdBursts::0            573707                       # Per bank write bursts
system.mem_ctrls.perBankRdBursts::1            573435                       # Per bank write bursts
system.mem_ctrls.perBankRdBursts::2            574517                       # Per bank write bursts
system.mem_ctrls.perBankRdBursts::3            571411                       # Per bank write bursts
system.mem_ctrls.perBankRdBursts::4            570495                       # Per bank write bursts
system.mem_ctrls.perBankRdBursts::5            567837                       # Per bank write bursts
system.mem_ctrls.perBankRdBursts::6            555953                       # Per bank write bursts
system.mem_ctrls.perBankRdBursts::7            556177                       # Per bank write bursts
system.mem_ctrls.perBankRdBursts::8            555215                       # Per bank write bursts
system.mem_ctrls.perBankRdBursts::9            556711                       # Per bank write bursts
system.mem_ctrls.perBankRdBursts::10           556681                       # Per bank write bursts
system.mem_ctrls.perBankRdBursts::11           557532                       # Per bank write bursts
system.mem_ctrls.perBankRdBursts::12           556622                       # Per bank write bursts
system.mem_ctrls.perBankRdBursts::13           555008                       # Per bank write bursts
system.mem_ctrls.perBankRdBursts::14           555144                       # Per bank write bursts
system.mem_ctrls.perBankRdBursts::15           554305                       # Per bank write bursts
system.mem_ctrls.perBankRdBursts::16           555455                       # Per bank write bursts
system.mem_ctrls.perBankRdBursts::17           555447                       # Per bank write bursts
system.mem_ctrls.perBankRdBursts::18           556268                       # Per bank write bursts
system.mem_ctrls.perBankRdBursts::19           556932                       # Per bank write bursts
system.mem_ctrls.perBankRdBursts::20           558984                       # Per bank write bursts
system.mem_ctrls.perBankRdBursts::21           564913                       # Per bank write bursts
system.mem_ctrls.perBankRdBursts::22           564708                       # Per bank write bursts
system.mem_ctrls.perBankRdBursts::23           565442                       # Per bank write bursts
system.mem_ctrls.perBankRdBursts::24           563483                       # Per bank write bursts
system.mem_ctrls.perBankRdBursts::25           564935                       # Per bank write bursts
system.mem_ctrls.perBankRdBursts::26           564697                       # Per bank write bursts
system.mem_ctrls.perBankRdBursts::27           567846                       # Per bank write bursts
system.mem_ctrls.perBankRdBursts::28           568370                       # Per bank write bursts
system.mem_ctrls.perBankRdBursts::29           570115                       # Per bank write bursts
system.mem_ctrls.perBankRdBursts::30           569862                       # Per bank write bursts
system.mem_ctrls.perBankRdBursts::31           571293                       # Per bank write bursts
system.mem_ctrls.perBankWrBursts::0            326047                       # Per bank write bursts
system.mem_ctrls.perBankWrBursts::1            326586                       # Per bank write bursts
system.mem_ctrls.perBankWrBursts::2            326899                       # Per bank write bursts
system.mem_ctrls.perBankWrBursts::3            324882                       # Per bank write bursts
system.mem_ctrls.perBankWrBursts::4            325186                       # Per bank write bursts
system.mem_ctrls.perBankWrBursts::5            324316                       # Per bank write bursts
system.mem_ctrls.perBankWrBursts::6            322075                       # Per bank write bursts
system.mem_ctrls.perBankWrBursts::7            321642                       # Per bank write bursts
system.mem_ctrls.perBankWrBursts::8            321679                       # Per bank write bursts
system.mem_ctrls.perBankWrBursts::9            322287                       # Per bank write bursts
system.mem_ctrls.perBankWrBursts::10           322384                       # Per bank write bursts
system.mem_ctrls.perBankWrBursts::11           322246                       # Per bank write bursts
system.mem_ctrls.perBankWrBursts::12           322133                       # Per bank write bursts
system.mem_ctrls.perBankWrBursts::13           321052                       # Per bank write bursts
system.mem_ctrls.perBankWrBursts::14           320894                       # Per bank write bursts
system.mem_ctrls.perBankWrBursts::15           320968                       # Per bank write bursts
system.mem_ctrls.perBankWrBursts::16           320907                       # Per bank write bursts
system.mem_ctrls.perBankWrBursts::17           320865                       # Per bank write bursts
system.mem_ctrls.perBankWrBursts::18           321873                       # Per bank write bursts
system.mem_ctrls.perBankWrBursts::19           322413                       # Per bank write bursts
system.mem_ctrls.perBankWrBursts::20           322788                       # Per bank write bursts
system.mem_ctrls.perBankWrBursts::21           328619                       # Per bank write bursts
system.mem_ctrls.perBankWrBursts::22           328505                       # Per bank write bursts
system.mem_ctrls.perBankWrBursts::23           328665                       # Per bank write bursts
system.mem_ctrls.perBankWrBursts::24           328365                       # Per bank write bursts
system.mem_ctrls.perBankWrBursts::25           328815                       # Per bank write bursts
system.mem_ctrls.perBankWrBursts::26           329211                       # Per bank write bursts
system.mem_ctrls.perBankWrBursts::27           331324                       # Per bank write bursts
system.mem_ctrls.perBankWrBursts::28           330780                       # Per bank write bursts
system.mem_ctrls.perBankWrBursts::29           326394                       # Per bank write bursts
system.mem_ctrls.perBankWrBursts::30           325331                       # Per bank write bursts
system.mem_ctrls.perBankWrBursts::31           325671                       # Per bank write bursts
system.mem_ctrls.numRdRetry                         0                       # Number of times read queue was full causing retry
system.mem_ctrls.numWrRetry                       157                       # Number of times write queue was full causing retry
system.mem_ctrls.totGap                  2935801603500                       # Total gap between requests
system.mem_ctrls.readPktSize::0                     0                       # Read request sizes (log2)
system.mem_ctrls.readPktSize::1                     0                       # Read request sizes (log2)
system.mem_ctrls.readPktSize::2                     0                       # Read request sizes (log2)
system.mem_ctrls.readPktSize::3                     0                       # Read request sizes (log2)
system.mem_ctrls.readPktSize::4                     0                       # Read request sizes (log2)
system.mem_ctrls.readPktSize::5                     0                       # Read request sizes (log2)
system.mem_ctrls.readPktSize::6              18026571                       # Read request sizes (log2)
system.mem_ctrls.writePktSize::0                    0                       # Write request sizes (log2)
system.mem_ctrls.writePktSize::1                    0                       # Write request sizes (log2)
system.mem_ctrls.writePktSize::2                    0                       # Write request sizes (log2)
system.mem_ctrls.writePktSize::3                    0                       # Write request sizes (log2)
system.mem_ctrls.writePktSize::4                    0                       # Write request sizes (log2)
system.mem_ctrls.writePktSize::5                    0                       # Write request sizes (log2)
system.mem_ctrls.writePktSize::6             10391885                       # Write request sizes (log2)
system.mem_ctrls.rdQLenPdf::0                14641176                       # What read queue length does an incoming req see
system.mem_ctrls.rdQLenPdf::1                 3362800                       # What read queue length does an incoming req see
system.mem_ctrls.rdQLenPdf::2                    4118                       # What read queue length does an incoming req see
system.mem_ctrls.rdQLenPdf::3                    1393                       # What read queue length does an incoming req see
system.mem_ctrls.rdQLenPdf::4                      12                       # What read queue length does an incoming req see
system.mem_ctrls.rdQLenPdf::5                       1                       # What read queue length does an incoming req see
system.mem_ctrls.rdQLenPdf::6                       0                       # What read queue length does an incoming req see
system.mem_ctrls.rdQLenPdf::7                       0                       # What read queue length does an incoming req see
system.mem_ctrls.rdQLenPdf::8                       0                       # What read queue length does an incoming req see
system.mem_ctrls.rdQLenPdf::9                       0                       # What read queue length does an incoming req see
system.mem_ctrls.rdQLenPdf::10                      0                       # What read queue length does an incoming req see
system.mem_ctrls.rdQLenPdf::11                      0                       # What read queue length does an incoming req see
system.mem_ctrls.rdQLenPdf::12                      0                       # What read queue length does an incoming req see
system.mem_ctrls.rdQLenPdf::13                      0                       # What read queue length does an incoming req see
system.mem_ctrls.rdQLenPdf::14                      0                       # What read queue length does an incoming req see
system.mem_ctrls.rdQLenPdf::15                      0                       # What read queue length does an incoming req see
system.mem_ctrls.rdQLenPdf::16                      0                       # What read queue length does an incoming req see
system.mem_ctrls.rdQLenPdf::17                      0                       # What read queue length does an incoming req see
system.mem_ctrls.rdQLenPdf::18                      0                       # What read queue length does an incoming req see
system.mem_ctrls.rdQLenPdf::19                      0                       # What read queue length does an incoming req see
system.mem_ctrls.rdQLenPdf::20                      0                       # What read queue length does an incoming req see
system.mem_ctrls.rdQLenPdf::21                      0                       # What read queue length does an incoming req see
system.mem_ctrls.rdQLenPdf::22                      0                       # What read queue length does an incoming req see
system.mem_ctrls.rdQLenPdf::23                      0                       # What read queue length does an incoming req see
system.mem_ctrls.rdQLenPdf::24                      0                       # What read queue length does an incoming req see
system.mem_ctrls.rdQLenPdf::25                      0                       # What read queue length does an incoming req see
system.mem_ctrls.rdQLenPdf::26                      0                       # What read queue length does an incoming req see
system.mem_ctrls.rdQLenPdf::27                      0                       # What read queue length does an incoming req see
system.mem_ctrls.rdQLenPdf::28                      0                       # What read queue length does an incoming req see
system.mem_ctrls.rdQLenPdf::29                      0                       # What read queue length does an incoming req see
system.mem_ctrls.rdQLenPdf::30                      0                       # What read queue length does an incoming req see
system.mem_ctrls.rdQLenPdf::31                      0                       # What read queue length does an incoming req see
system.mem_ctrls.rdQLenPdf::32                      0                       # What read queue length does an incoming req see
system.mem_ctrls.rdQLenPdf::33                      0                       # What read queue length does an incoming req see
system.mem_ctrls.rdQLenPdf::34                      0                       # What read queue length does an incoming req see
system.mem_ctrls.rdQLenPdf::35                      0                       # What read queue length does an incoming req see
system.mem_ctrls.rdQLenPdf::36                      0                       # What read queue length does an incoming req see
system.mem_ctrls.rdQLenPdf::37                      0                       # What read queue length does an incoming req see
system.mem_ctrls.rdQLenPdf::38                      0                       # What read queue length does an incoming req see
system.mem_ctrls.rdQLenPdf::39                      0                       # What read queue length does an incoming req see
system.mem_ctrls.rdQLenPdf::40                      0                       # What read queue length does an incoming req see
system.mem_ctrls.rdQLenPdf::41                      0                       # What read queue length does an incoming req see
system.mem_ctrls.rdQLenPdf::42                      0                       # What read queue length does an incoming req see
system.mem_ctrls.rdQLenPdf::43                      0                       # What read queue length does an incoming req see
system.mem_ctrls.rdQLenPdf::44                      0                       # What read queue length does an incoming req see
system.mem_ctrls.rdQLenPdf::45                      0                       # What read queue length does an incoming req see
system.mem_ctrls.rdQLenPdf::46                      0                       # What read queue length does an incoming req see
system.mem_ctrls.rdQLenPdf::47                      0                       # What read queue length does an incoming req see
system.mem_ctrls.rdQLenPdf::48                      0                       # What read queue length does an incoming req see
system.mem_ctrls.rdQLenPdf::49                      0                       # What read queue length does an incoming req see
system.mem_ctrls.rdQLenPdf::50                      0                       # What read queue length does an incoming req see
system.mem_ctrls.rdQLenPdf::51                      0                       # What read queue length does an incoming req see
system.mem_ctrls.rdQLenPdf::52                      0                       # What read queue length does an incoming req see
system.mem_ctrls.rdQLenPdf::53                      0                       # What read queue length does an incoming req see
system.mem_ctrls.rdQLenPdf::54                      0                       # What read queue length does an incoming req see
system.mem_ctrls.rdQLenPdf::55                      0                       # What read queue length does an incoming req see
system.mem_ctrls.rdQLenPdf::56                      0                       # What read queue length does an incoming req see
system.mem_ctrls.rdQLenPdf::57                      0                       # What read queue length does an incoming req see
system.mem_ctrls.rdQLenPdf::58                      0                       # What read queue length does an incoming req see
system.mem_ctrls.rdQLenPdf::59                      0                       # What read queue length does an incoming req see
system.mem_ctrls.rdQLenPdf::60                      0                       # What read queue length does an incoming req see
system.mem_ctrls.rdQLenPdf::61                      0                       # What read queue length does an incoming req see
system.mem_ctrls.rdQLenPdf::62                      0                       # What read queue length does an incoming req see
system.mem_ctrls.rdQLenPdf::63                      0                       # What read queue length does an incoming req see
system.mem_ctrls.wrQLenPdf::0                       1                       # What write queue length does an incoming req see
system.mem_ctrls.wrQLenPdf::1                       1                       # What write queue length does an incoming req see
system.mem_ctrls.wrQLenPdf::2                       1                       # What write queue length does an incoming req see
system.mem_ctrls.wrQLenPdf::3                       1                       # What write queue length does an incoming req see
system.mem_ctrls.wrQLenPdf::4                       1                       # What write queue length does an incoming req see
system.mem_ctrls.wrQLenPdf::5                       1                       # What write queue length does an incoming req see
system.mem_ctrls.wrQLenPdf::6                       1                       # What write queue length does an incoming req see
system.mem_ctrls.wrQLenPdf::7                       1                       # What write queue length does an incoming req see
system.mem_ctrls.wrQLenPdf::8                       1                       # What write queue length does an incoming req see
system.mem_ctrls.wrQLenPdf::9                       1                       # What write queue length does an incoming req see
system.mem_ctrls.wrQLenPdf::10                      1                       # What write queue length does an incoming req see
system.mem_ctrls.wrQLenPdf::11                      1                       # What write queue length does an incoming req see
system.mem_ctrls.wrQLenPdf::12                      1                       # What write queue length does an incoming req see
system.mem_ctrls.wrQLenPdf::13                      1                       # What write queue length does an incoming req see
system.mem_ctrls.wrQLenPdf::14                      1                       # What write queue length does an incoming req see
system.mem_ctrls.wrQLenPdf::15                      1                       # What write queue length does an incoming req see
system.mem_ctrls.wrQLenPdf::16                      1                       # What write queue length does an incoming req see
system.mem_ctrls.wrQLenPdf::17                      1                       # What write queue length does an incoming req see
system.mem_ctrls.wrQLenPdf::18                      1                       # What write queue length does an incoming req see
system.mem_ctrls.wrQLenPdf::19                      1                       # What write queue length does an incoming req see
system.mem_ctrls.wrQLenPdf::20                      1                       # What write queue length does an incoming req see
system.mem_ctrls.wrQLenPdf::21                      1                       # What write queue length does an incoming req see
system.mem_ctrls.wrQLenPdf::22                      1                       # What write queue length does an incoming req see
system.mem_ctrls.wrQLenPdf::23                      1                       # What write queue length does an incoming req see
system.mem_ctrls.wrQLenPdf::24                      1                       # What write queue length does an incoming req see
system.mem_ctrls.wrQLenPdf::25                      1                       # What write queue length does an incoming req see
system.mem_ctrls.wrQLenPdf::26                      1                       # What write queue length does an incoming req see
system.mem_ctrls.wrQLenPdf::27                      1                       # What write queue length does an incoming req see
system.mem_ctrls.wrQLenPdf::28                      1                       # What write queue length does an incoming req see
system.mem_ctrls.wrQLenPdf::29                      1                       # What write queue length does an incoming req see
system.mem_ctrls.wrQLenPdf::30                      1                       # What write queue length does an incoming req see
system.mem_ctrls.wrQLenPdf::31                      1                       # What write queue length does an incoming req see
system.mem_ctrls.wrQLenPdf::32                      1                       # What write queue length does an incoming req see
system.mem_ctrls.wrQLenPdf::33                      1                       # What write queue length does an incoming req see
system.mem_ctrls.wrQLenPdf::34                      1                       # What write queue length does an incoming req see
system.mem_ctrls.wrQLenPdf::35                      1                       # What write queue length does an incoming req see
system.mem_ctrls.wrQLenPdf::36                      1                       # What write queue length does an incoming req see
system.mem_ctrls.wrQLenPdf::37                      1                       # What write queue length does an incoming req see
system.mem_ctrls.wrQLenPdf::38                      1                       # What write queue length does an incoming req see
system.mem_ctrls.wrQLenPdf::39                      1                       # What write queue length does an incoming req see
system.mem_ctrls.wrQLenPdf::40                      1                       # What write queue length does an incoming req see
system.mem_ctrls.wrQLenPdf::41                      1                       # What write queue length does an incoming req see
system.mem_ctrls.wrQLenPdf::42                      1                       # What write queue length does an incoming req see
system.mem_ctrls.wrQLenPdf::43                      1                       # What write queue length does an incoming req see
system.mem_ctrls.wrQLenPdf::44                      1                       # What write queue length does an incoming req see
system.mem_ctrls.wrQLenPdf::45                      1                       # What write queue length does an incoming req see
system.mem_ctrls.wrQLenPdf::46                      1                       # What write queue length does an incoming req see
system.mem_ctrls.wrQLenPdf::47                 178596                       # What write queue length does an incoming req see
system.mem_ctrls.wrQLenPdf::48                 209963                       # What write queue length does an incoming req see
system.mem_ctrls.wrQLenPdf::49                 618197                       # What write queue length does an incoming req see
system.mem_ctrls.wrQLenPdf::50                 626250                       # What write queue length does an incoming req see
system.mem_ctrls.wrQLenPdf::51                 630004                       # What write queue length does an incoming req see
system.mem_ctrls.wrQLenPdf::52                 611629                       # What write queue length does an incoming req see
system.mem_ctrls.wrQLenPdf::53                 616019                       # What write queue length does an incoming req see
system.mem_ctrls.wrQLenPdf::54                 628884                       # What write queue length does an incoming req see
system.mem_ctrls.wrQLenPdf::55                 640952                       # What write queue length does an incoming req see
system.mem_ctrls.wrQLenPdf::56                 614440                       # What write queue length does an incoming req see
system.mem_ctrls.wrQLenPdf::57                 605414                       # What write queue length does an incoming req see
system.mem_ctrls.wrQLenPdf::58                 601679                       # What write queue length does an incoming req see
system.mem_ctrls.wrQLenPdf::59                 602432                       # What write queue length does an incoming req see
system.mem_ctrls.wrQLenPdf::60                 596853                       # What write queue length does an incoming req see
system.mem_ctrls.wrQLenPdf::61                 588843                       # What write queue length does an incoming req see
system.mem_ctrls.wrQLenPdf::62                 593773                       # What write queue length does an incoming req see
system.mem_ctrls.wrQLenPdf::63                 599858                       # What write queue length does an incoming req see
system.mem_ctrls.wrQLenPdf::64                 600909                       # What write queue length does an incoming req see
system.mem_ctrls.wrQLenPdf::65                  15907                       # What write queue length does an incoming req see
system.mem_ctrls.wrQLenPdf::66                   9343                       # What write queue length does an incoming req see
system.mem_ctrls.wrQLenPdf::67                  12273                       # What write queue length does an incoming req see
system.mem_ctrls.wrQLenPdf::68                   6807                       # What write queue length does an incoming req see
system.mem_ctrls.wrQLenPdf::69                   4627                       # What write queue length does an incoming req see
system.mem_ctrls.wrQLenPdf::70                   3965                       # What write queue length does an incoming req see
system.mem_ctrls.wrQLenPdf::71                   3219                       # What write queue length does an incoming req see
system.mem_ctrls.wrQLenPdf::72                   2135                       # What write queue length does an incoming req see
system.mem_ctrls.wrQLenPdf::73                   1869                       # What write queue length does an incoming req see
system.mem_ctrls.wrQLenPdf::74                   3232                       # What write queue length does an incoming req see
system.mem_ctrls.wrQLenPdf::75                   3737                       # What write queue length does an incoming req see
system.mem_ctrls.wrQLenPdf::76                   4120                       # What write queue length does an incoming req see
system.mem_ctrls.wrQLenPdf::77                   3422                       # What write queue length does an incoming req see
system.mem_ctrls.wrQLenPdf::78                   2829                       # What write queue length does an incoming req see
system.mem_ctrls.wrQLenPdf::79                   6020                       # What write queue length does an incoming req see
system.mem_ctrls.wrQLenPdf::80                   5907                       # What write queue length does an incoming req see
system.mem_ctrls.wrQLenPdf::81                   2453                       # What write queue length does an incoming req see
system.mem_ctrls.wrQLenPdf::82                   1835                       # What write queue length does an incoming req see
system.mem_ctrls.wrQLenPdf::83                   2895                       # What write queue length does an incoming req see
system.mem_ctrls.wrQLenPdf::84                   3467                       # What write queue length does an incoming req see
system.mem_ctrls.wrQLenPdf::85                   3416                       # What write queue length does an incoming req see
system.mem_ctrls.wrQLenPdf::86                   2688                       # What write queue length does an incoming req see
system.mem_ctrls.wrQLenPdf::87                   2547                       # What write queue length does an incoming req see
system.mem_ctrls.wrQLenPdf::88                   2488                       # What write queue length does an incoming req see
system.mem_ctrls.wrQLenPdf::89                   6199                       # What write queue length does an incoming req see
system.mem_ctrls.wrQLenPdf::90                   4956                       # What write queue length does an incoming req see
system.mem_ctrls.wrQLenPdf::91                   4723                       # What write queue length does an incoming req see
system.mem_ctrls.wrQLenPdf::92                   4128                       # What write queue length does an incoming req see
system.mem_ctrls.wrQLenPdf::93                   2191                       # What write queue length does an incoming req see
system.mem_ctrls.wrQLenPdf::94                   2278                       # What write queue length does an incoming req see
system.mem_ctrls.wrQLenPdf::95                   3384                       # What write queue length does an incoming req see
system.mem_ctrls.wrQLenPdf::96                   4910                       # What write queue length does an incoming req see
system.mem_ctrls.wrQLenPdf::97                   3658                       # What write queue length does an incoming req see
system.mem_ctrls.wrQLenPdf::98                   2802                       # What write queue length does an incoming req see
system.mem_ctrls.wrQLenPdf::99                   6372                       # What write queue length does an incoming req see
system.mem_ctrls.wrQLenPdf::100                  5418                       # What write queue length does an incoming req see
system.mem_ctrls.wrQLenPdf::101                  5981                       # What write queue length does an incoming req see
system.mem_ctrls.wrQLenPdf::102                  3294                       # What write queue length does an incoming req see
system.mem_ctrls.wrQLenPdf::103                  3903                       # What write queue length does an incoming req see
system.mem_ctrls.wrQLenPdf::104                  2693                       # What write queue length does an incoming req see
system.mem_ctrls.wrQLenPdf::105                  3698                       # What write queue length does an incoming req see
system.mem_ctrls.wrQLenPdf::106                  2957                       # What write queue length does an incoming req see
system.mem_ctrls.wrQLenPdf::107                  3442                       # What write queue length does an incoming req see
system.mem_ctrls.wrQLenPdf::108                  3486                       # What write queue length does an incoming req see
system.mem_ctrls.wrQLenPdf::109                  3426                       # What write queue length does an incoming req see
system.mem_ctrls.wrQLenPdf::110                  3798                       # What write queue length does an incoming req see
system.mem_ctrls.wrQLenPdf::111                  3454                       # What write queue length does an incoming req see
system.mem_ctrls.wrQLenPdf::112                  2256                       # What write queue length does an incoming req see
system.mem_ctrls.wrQLenPdf::113                  3144                       # What write queue length does an incoming req see
system.mem_ctrls.wrQLenPdf::114                  1929                       # What write queue length does an incoming req see
system.mem_ctrls.wrQLenPdf::115                  3558                       # What write queue length does an incoming req see
system.mem_ctrls.wrQLenPdf::116                  1689                       # What write queue length does an incoming req see
system.mem_ctrls.wrQLenPdf::117                  2966                       # What write queue length does an incoming req see
system.mem_ctrls.wrQLenPdf::118                  1846                       # What write queue length does an incoming req see
system.mem_ctrls.wrQLenPdf::119                  2498                       # What write queue length does an incoming req see
system.mem_ctrls.wrQLenPdf::120                  2018                       # What write queue length does an incoming req see
system.mem_ctrls.wrQLenPdf::121                   816                       # What write queue length does an incoming req see
system.mem_ctrls.wrQLenPdf::122                   764                       # What write queue length does an incoming req see
system.mem_ctrls.wrQLenPdf::123                   504                       # What write queue length does an incoming req see
system.mem_ctrls.wrQLenPdf::124                   280                       # What write queue length does an incoming req see
system.mem_ctrls.wrQLenPdf::125                   114                       # What write queue length does an incoming req see
system.mem_ctrls.wrQLenPdf::126                    92                       # What write queue length does an incoming req see
system.mem_ctrls.wrQLenPdf::127                   297                       # What write queue length does an incoming req see
system.mem_ctrls.bytesPerActivate::samples      3074759                       # Bytes accessed per row activation
system.mem_ctrls.bytesPerActivate::mean    591.162174                       # Bytes accessed per row activation
system.mem_ctrls.bytesPerActivate::gmean   413.291374                       # Bytes accessed per row activation
system.mem_ctrls.bytesPerActivate::stdev   373.431394                       # Bytes accessed per row activation
system.mem_ctrls.bytesPerActivate::0-127       488447     15.89%     15.89% # Bytes accessed per row activation
system.mem_ctrls.bytesPerActivate::128-255       282264      9.18%     25.07% # Bytes accessed per row activation
system.mem_ctrls.bytesPerActivate::256-383       179492      5.84%     30.90% # Bytes accessed per row activation
system.mem_ctrls.bytesPerActivate::384-511       323309     10.51%     41.42% # Bytes accessed per row activation
system.mem_ctrls.bytesPerActivate::512-639       360085     11.71%     53.13% # Bytes accessed per row activation
system.mem_ctrls.bytesPerActivate::640-767       185720      6.04%     59.17% # Bytes accessed per row activation
system.mem_ctrls.bytesPerActivate::768-895       138913      4.52%     63.69% # Bytes accessed per row activation
system.mem_ctrls.bytesPerActivate::896-1023       102635      3.34%     67.03% # Bytes accessed per row activation
system.mem_ctrls.bytesPerActivate::1024-1151      1013894     32.97%    100.00% # Bytes accessed per row activation
system.mem_ctrls.bytesPerActivate::total      3074759                       # Bytes accessed per row activation
system.mem_ctrls.rdPerTurnAround::samples       578535                       # Reads before turning the bus around for writes
system.mem_ctrls.rdPerTurnAround::mean      31.129449                       # Reads before turning the bus around for writes
system.mem_ctrls.rdPerTurnAround::stdev    201.819348                       # Reads before turning the bus around for writes
system.mem_ctrls.rdPerTurnAround::0-255        576363     99.62%     99.62% # Reads before turning the bus around for writes
system.mem_ctrls.rdPerTurnAround::256-511         1137      0.20%     99.82% # Reads before turning the bus around for writes
system.mem_ctrls.rdPerTurnAround::512-767           95      0.02%     99.84% # Reads before turning the bus around for writes
system.mem_ctrls.rdPerTurnAround::768-1023           59      0.01%     99.85% # Reads before turning the bus around for writes
system.mem_ctrls.rdPerTurnAround::1024-1279           38      0.01%     99.85% # Reads before turning the bus around for writes
system.mem_ctrls.rdPerTurnAround::1280-1535           44      0.01%     99.86% # Reads before turning the bus around for writes
system.mem_ctrls.rdPerTurnAround::1536-1791           26      0.00%     99.87% # Reads before turning the bus around for writes
system.mem_ctrls.rdPerTurnAround::1792-2047           58      0.01%     99.88% # Reads before turning the bus around for writes
system.mem_ctrls.rdPerTurnAround::2048-2303           36      0.01%     99.88% # Reads before turning the bus around for writes
system.mem_ctrls.rdPerTurnAround::2304-2559           27      0.00%     99.89% # Reads before turning the bus around for writes
system.mem_ctrls.rdPerTurnAround::2560-2815           52      0.01%     99.90% # Reads before turning the bus around for writes
system.mem_ctrls.rdPerTurnAround::2816-3071           22      0.00%     99.90% # Reads before turning the bus around for writes
system.mem_ctrls.rdPerTurnAround::3072-3327           36      0.01%     99.91% # Reads before turning the bus around for writes
system.mem_ctrls.rdPerTurnAround::3328-3583           24      0.00%     99.91% # Reads before turning the bus around for writes
system.mem_ctrls.rdPerTurnAround::3584-3839           37      0.01%     99.92% # Reads before turning the bus around for writes
system.mem_ctrls.rdPerTurnAround::3840-4095           34      0.01%     99.92% # Reads before turning the bus around for writes
system.mem_ctrls.rdPerTurnAround::4096-4351           24      0.00%     99.93% # Reads before turning the bus around for writes
system.mem_ctrls.rdPerTurnAround::4352-4607           37      0.01%     99.93% # Reads before turning the bus around for writes
system.mem_ctrls.rdPerTurnAround::4608-4863           18      0.00%     99.94% # Reads before turning the bus around for writes
system.mem_ctrls.rdPerTurnAround::4864-5119           38      0.01%     99.94% # Reads before turning the bus around for writes
system.mem_ctrls.rdPerTurnAround::5120-5375           39      0.01%     99.95% # Reads before turning the bus around for writes
system.mem_ctrls.rdPerTurnAround::5376-5631           37      0.01%     99.96% # Reads before turning the bus around for writes
system.mem_ctrls.rdPerTurnAround::5632-5887            5      0.00%     99.96% # Reads before turning the bus around for writes
system.mem_ctrls.rdPerTurnAround::5888-6143           40      0.01%     99.96% # Reads before turning the bus around for writes
system.mem_ctrls.rdPerTurnAround::6144-6399           40      0.01%     99.97% # Reads before turning the bus around for writes
system.mem_ctrls.rdPerTurnAround::6400-6655           17      0.00%     99.97% # Reads before turning the bus around for writes
system.mem_ctrls.rdPerTurnAround::6656-6911           17      0.00%     99.98% # Reads before turning the bus around for writes
system.mem_ctrls.rdPerTurnAround::6912-7167            4      0.00%     99.98% # Reads before turning the bus around for writes
system.mem_ctrls.rdPerTurnAround::7168-7423           23      0.00%     99.98% # Reads before turning the bus around for writes
system.mem_ctrls.rdPerTurnAround::7424-7679           21      0.00%     99.98% # Reads before turning the bus around for writes
system.mem_ctrls.rdPerTurnAround::7680-7935           17      0.00%     99.99% # Reads before turning the bus around for writes
system.mem_ctrls.rdPerTurnAround::7936-8191            5      0.00%     99.99% # Reads before turning the bus around for writes
system.mem_ctrls.rdPerTurnAround::8192-8447            1      0.00%     99.99% # Reads before turning the bus around for writes
system.mem_ctrls.rdPerTurnAround::8448-8703            1      0.00%     99.99% # Reads before turning the bus around for writes
system.mem_ctrls.rdPerTurnAround::8704-8959            2      0.00%     99.99% # Reads before turning the bus around for writes
system.mem_ctrls.rdPerTurnAround::9216-9471            9      0.00%     99.99% # Reads before turning the bus around for writes
system.mem_ctrls.rdPerTurnAround::9728-9983            1      0.00%     99.99% # Reads before turning the bus around for writes
system.mem_ctrls.rdPerTurnAround::9984-10239           40      0.01%    100.00% # Reads before turning the bus around for writes
system.mem_ctrls.rdPerTurnAround::10240-10495            2      0.00%    100.00% # Reads before turning the bus around for writes
system.mem_ctrls.rdPerTurnAround::13312-13567            9      0.00%    100.00% # Reads before turning the bus around for writes
system.mem_ctrls.rdPerTurnAround::total        578535                       # Reads before turning the bus around for writes
system.mem_ctrls.wrPerTurnAround::samples       578535                       # Writes before turning the bus around for reads
system.mem_ctrls.wrPerTurnAround::mean      17.962270                       # Writes before turning the bus around for reads
system.mem_ctrls.wrPerTurnAround::gmean     17.229690                       # Writes before turning the bus around for reads
system.mem_ctrls.wrPerTurnAround::stdev     11.563174                       # Writes before turning the bus around for reads
system.mem_ctrls.wrPerTurnAround::16-23        552113     95.43%     95.43% # Writes before turning the bus around for reads
system.mem_ctrls.wrPerTurnAround::24-31          2741      0.47%     95.91% # Writes before turning the bus around for reads
system.mem_ctrls.wrPerTurnAround::32-39         16751      2.90%     98.80% # Writes before turning the bus around for reads
system.mem_ctrls.wrPerTurnAround::40-47          2054      0.36%     99.16% # Writes before turning the bus around for reads
system.mem_ctrls.wrPerTurnAround::48-55          2336      0.40%     99.56% # Writes before turning the bus around for reads
system.mem_ctrls.wrPerTurnAround::56-63            96      0.02%     99.58% # Writes before turning the bus around for reads
system.mem_ctrls.wrPerTurnAround::64-71           752      0.13%     99.71% # Writes before turning the bus around for reads
system.mem_ctrls.wrPerTurnAround::72-79           114      0.02%     99.73% # Writes before turning the bus around for reads
system.mem_ctrls.wrPerTurnAround::80-87            20      0.00%     99.73% # Writes before turning the bus around for reads
system.mem_ctrls.wrPerTurnAround::88-95           299      0.05%     99.78% # Writes before turning the bus around for reads
system.mem_ctrls.wrPerTurnAround::96-103            6      0.00%     99.78% # Writes before turning the bus around for reads
system.mem_ctrls.wrPerTurnAround::104-111           11      0.00%     99.79% # Writes before turning the bus around for reads
system.mem_ctrls.wrPerTurnAround::112-119           16      0.00%     99.79% # Writes before turning the bus around for reads
system.mem_ctrls.wrPerTurnAround::120-127            9      0.00%     99.79% # Writes before turning the bus around for reads
system.mem_ctrls.wrPerTurnAround::128-135            9      0.00%     99.79% # Writes before turning the bus around for reads
system.mem_ctrls.wrPerTurnAround::136-143           11      0.00%     99.79% # Writes before turning the bus around for reads
system.mem_ctrls.wrPerTurnAround::144-151            8      0.00%     99.79% # Writes before turning the bus around for reads
system.mem_ctrls.wrPerTurnAround::152-159           11      0.00%     99.80% # Writes before turning the bus around for reads
system.mem_ctrls.wrPerTurnAround::160-167            7      0.00%     99.80% # Writes before turning the bus around for reads
system.mem_ctrls.wrPerTurnAround::168-175            1      0.00%     99.80% # Writes before turning the bus around for reads
system.mem_ctrls.wrPerTurnAround::176-183           10      0.00%     99.80% # Writes before turning the bus around for reads
system.mem_ctrls.wrPerTurnAround::184-191           12      0.00%     99.80% # Writes before turning the bus around for reads
system.mem_ctrls.wrPerTurnAround::192-199           10      0.00%     99.80% # Writes before turning the bus around for reads
system.mem_ctrls.wrPerTurnAround::200-207            4      0.00%     99.80% # Writes before turning the bus around for reads
system.mem_ctrls.wrPerTurnAround::208-215            8      0.00%     99.81% # Writes before turning the bus around for reads
system.mem_ctrls.wrPerTurnAround::216-223           18      0.00%     99.81% # Writes before turning the bus around for reads
system.mem_ctrls.wrPerTurnAround::224-231           33      0.01%     99.81% # Writes before turning the bus around for reads
system.mem_ctrls.wrPerTurnAround::232-239           10      0.00%     99.82% # Writes before turning the bus around for reads
system.mem_ctrls.wrPerTurnAround::240-247          533      0.09%     99.91% # Writes before turning the bus around for reads
system.mem_ctrls.wrPerTurnAround::248-255           82      0.01%     99.92% # Writes before turning the bus around for reads
system.mem_ctrls.wrPerTurnAround::256-263          215      0.04%     99.96% # Writes before turning the bus around for reads
system.mem_ctrls.wrPerTurnAround::264-271          223      0.04%    100.00% # Writes before turning the bus around for reads
system.mem_ctrls.wrPerTurnAround::280-287            2      0.00%    100.00% # Writes before turning the bus around for reads
system.mem_ctrls.wrPerTurnAround::288-295            1      0.00%    100.00% # Writes before turning the bus around for reads
system.mem_ctrls.wrPerTurnAround::304-311            1      0.00%    100.00% # Writes before turning the bus around for reads
system.mem_ctrls.wrPerTurnAround::312-319            1      0.00%    100.00% # Writes before turning the bus around for reads
system.mem_ctrls.wrPerTurnAround::336-343            1      0.00%    100.00% # Writes before turning the bus around for reads
system.mem_ctrls.wrPerTurnAround::344-351            1      0.00%    100.00% # Writes before turning the bus around for reads
system.mem_ctrls.wrPerTurnAround::352-359            1      0.00%    100.00% # Writes before turning the bus around for reads
system.mem_ctrls.wrPerTurnAround::376-383            1      0.00%    100.00% # Writes before turning the bus around for reads
system.mem_ctrls.wrPerTurnAround::384-391            1      0.00%    100.00% # Writes before turning the bus around for reads
system.mem_ctrls.wrPerTurnAround::440-447            1      0.00%    100.00% # Writes before turning the bus around for reads
system.mem_ctrls.wrPerTurnAround::512-519            1      0.00%    100.00% # Writes before turning the bus around for reads
system.mem_ctrls.wrPerTurnAround::total        578535                       # Writes before turning the bus around for reads
system.mem_ctrls.masterReadBytes::.cpu.inst       342144                       # Per-master bytes read from memory
system.mem_ctrls.masterReadBytes::.cpu.data   1152265856                       # Per-master bytes read from memory
system.mem_ctrls.masterWriteBytes::.writebacks    665075328                       # Per-master bytes write to memory
system.mem_ctrls.masterReadRate::.cpu.inst 116541.934623691544                       # Per-master bytes read from memory rate (Bytes/sec)
system.mem_ctrls.masterReadRate::.cpu.data 392487642.802632749081                       # Per-master bytes read from memory rate (Bytes/sec)
system.mem_ctrls.masterWriteRate::.writebacks 226539601.441516488791                       # Per-master bytes write to memory rate (Bytes/sec)
system.mem_ctrls.masterReadAccesses::.cpu.inst         5346                       # Per-master read serviced memory accesses
system.mem_ctrls.masterReadAccesses::.cpu.data     18021225                       # Per-master read serviced memory accesses
system.mem_ctrls.masterWriteAccesses::.writebacks     10391885                       # Per-master write serviced memory accesses
system.mem_ctrls.masterReadTotalLat::.cpu.inst    328034765                       # Per-master read total memory access latency
system.mem_ctrls.masterReadTotalLat::.cpu.data 657914681411                       # Per-master read total memory access latency
system.mem_ctrls.masterWriteTotalLat::.writebacks 164694558142919                       # Per-master write total memory access latency
system.mem_ctrls.masterReadAvgLat::.cpu.inst     61360.79                       # Per-master read average memory access latency
system.mem_ctrls.masterReadAvgLat::.cpu.data     36507.77                       # Per-master read average memory access latency
system.mem_ctrls.masterWriteAvgLat::.writebacks  15848381.52                       # Per-master write average memory access latency
system.mem_ctrls.totQLat                 343220542176                       # Total ticks spent queuing
system.mem_ctrls.totMemAccLat            658242716176                       # Total ticks spent from burst creation until serviced by the DRAM
system.mem_ctrls.totBusLat                60007654000                       # Total ticks spent in databus transfers
system.mem_ctrls.avgQLat                     19057.75                       # Average queueing delay per DRAM burst
system.mem_ctrls.avgBusLat                    3332.00                       # Average bus latency per DRAM burst
system.mem_ctrls.avgMemAccLat                36549.75                       # Average memory access latency per DRAM burst
system.mem_ctrls.avgRdBW                       392.60                       # Average DRAM read bandwidth in MiByte/s
system.mem_ctrls.avgWrBW                       226.54                       # Average achieved write bandwidth in MiByte/s
system.mem_ctrls.avgRdBWSys                    392.98                       # Average system read bandwidth in MiByte/s
system.mem_ctrls.avgWrBWSys                    226.54                       # Average system write bandwidth in MiByte/s
system.mem_ctrls.peakBW                      19207.00                       # Theoretical peak bandwidth in MiByte/s
system.mem_ctrls.busUtil                         3.22                       # Data bus utilization in percentage
system.mem_ctrls.busUtilRead                     2.04                       # Data bus utilization in percentage for reads
system.mem_ctrls.busUtilWrite                    1.18                       # Data bus utilization in percentage for writes
system.mem_ctrls.avgRdQLen                       1.13                       # Average read queue length when enqueuing
system.mem_ctrls.avgWrQLen                      57.03                       # Average write queue length when enqueuing
system.mem_ctrls.readRowHits                 16043749                       # Number of row buffer hits during reads
system.mem_ctrls.writeRowHits                 9282780                       # Number of row buffer hits during writes
system.mem_ctrls.readRowHitRate                 89.08                       # Row buffer hit rate for reads
system.mem_ctrls.writeRowHitRate                89.33                       # Row buffer hit rate for writes
system.mem_ctrls.avgGap                     103306.16                       # Average gap between requests
system.mem_ctrls.pageHitRate                    89.17                       # Row buffer hit rate, read and write combined
system.mem_ctrls_0.actEnergy             4259365398.071010                       # Energy for activate commands per rank (pJ)
system.mem_ctrls_0.preEnergy             2875361685.747789                       # Energy for precharge commands per rank (pJ)
system.mem_ctrls_0.readEnergy            13788645486.745447                       # Energy for read commands per rank (pJ)
system.mem_ctrls_0.writeEnergy           7260076675.253776                       # Energy for write commands per rank (pJ)
system.mem_ctrls_0.refreshEnergy         61542092510.313011                       # Energy for refresh commands per rank (pJ)
system.mem_ctrls_0.actBackEnergy         60463756115.488907                       # Energy for active background per rank (pJ)
system.mem_ctrls_0.preBackEnergy         3350759144.001618                       # Energy for precharge background per rank (pJ)
system.mem_ctrls_0.actPowerDownEnergy    137606777818.975128                       # Energy for active power-down per rank (pJ)
system.mem_ctrls_0.prePowerDownEnergy    37317431854.026680                       # Energy for precharge power-down per rank (pJ)
system.mem_ctrls_0.selfRefreshEnergy     253214763562.990753                       # Energy for self refresh per rank (pJ)
system.mem_ctrls_0.totalEnergy           582077571003.602783                       # Total energy per rank (pJ)
system.mem_ctrls_0.averagePower            198.268700                       # Core power per rank (mW)
system.mem_ctrls_0.totalIdleTime         2677128982099                       # Total Idle time Per DRAM Rank
system.mem_ctrls_0.memoryStateTime::IDLE  14782214749                       # Time in different power states
system.mem_ctrls_0.memoryStateTime::REF   56431900000                       # Time in different power states
system.mem_ctrls_0.memoryStateTime::SREF 1666928427751                       # Time in different power states
system.mem_ctrls_0.memoryStateTime::PRE_PDN 310978457224                       # Time in different power states
system.mem_ctrls_0.memoryStateTime::ACT  187458519152                       # Time in different power states
system.mem_ctrls_0.memoryStateTime::ACT_PDN 699222097124                       # Time in different power states
system.mem_ctrls_1.actEnergy             4125472774.551646                       # Energy for activate commands per rank (pJ)
system.mem_ctrls_1.preEnergy             2784974583.057155                       # Energy for precharge commands per rank (pJ)
system.mem_ctrls_1.readEnergy            13496347076.896154                       # Energy for read commands per rank (pJ)
system.mem_ctrls_1.writeEnergy           7193027465.669504                       # Energy for write commands per rank (pJ)
system.mem_ctrls_1.refreshEnergy         59310326165.076897                       # Energy for refresh commands per rank (pJ)
system.mem_ctrls_1.actBackEnergy         58583764634.001656                       # Energy for active background per rank (pJ)
system.mem_ctrls_1.preBackEnergy         3260673024.869101                       # Energy for precharge background per rank (pJ)
system.mem_ctrls_1.actPowerDownEnergy    132771559904.085785                       # Energy for active power-down per rank (pJ)
system.mem_ctrls_1.prePowerDownEnergy    35722434408.310036                       # Energy for precharge power-down per rank (pJ)
system.mem_ctrls_1.selfRefreshEnergy     259330434997.516693                       # Energy for self refresh per rank (pJ)
system.mem_ctrls_1.totalEnergy           576914355140.397217                       # Total energy per rank (pJ)
system.mem_ctrls_1.averagePower            196.509993                       # Core power per rank (mW)
system.mem_ctrls_1.totalIdleTime         2685286646133                       # Total Idle time Per DRAM Rank
system.mem_ctrls_1.memoryStateTime::IDLE  14260278965                       # Time in different power states
system.mem_ctrls_1.memoryStateTime::REF   54385450000                       # Time in different power states
system.mem_ctrls_1.memoryStateTime::SREF 1712947478369                       # Time in different power states
system.mem_ctrls_1.memoryStateTime::PRE_PDN 297687060766                       # Time in different power states
system.mem_ctrls_1.memoryStateTime::ACT  181869240902                       # Time in different power states
system.mem_ctrls_1.memoryStateTime::ACT_PDN 674652106998                       # Time in different power states
system.mem_ctrls_2.actEnergy             4181860421.467231                       # Energy for activate commands per rank (pJ)
system.mem_ctrls_2.preEnergy             2823043973.207366                       # Energy for precharge commands per rank (pJ)
system.mem_ctrls_2.readEnergy            13590222099.860649                       # Energy for read commands per rank (pJ)
system.mem_ctrls_2.writeEnergy           7251697620.216845                       # Energy for write commands per rank (pJ)
system.mem_ctrls_2.refreshEnergy         59875233671.652824                       # Energy for refresh commands per rank (pJ)
system.mem_ctrls_2.actBackEnergy         59167513992.819885                       # Energy for active background per rank (pJ)
system.mem_ctrls_2.preBackEnergy         3301257680.510562                       # Energy for precharge background per rank (pJ)
system.mem_ctrls_2.actPowerDownEnergy    134235536555.094070                       # Energy for active power-down per rank (pJ)
system.mem_ctrls_2.prePowerDownEnergy    35931740352.428619                       # Energy for precharge power-down per rank (pJ)
system.mem_ctrls_2.selfRefreshEnergy     257743716739.793610                       # Energy for self refresh per rank (pJ)
system.mem_ctrls_2.totalEnergy           578414597369.353149                       # Total energy per rank (pJ)
system.mem_ctrls_2.averagePower            197.021009                       # Core power per rank (mW)
system.mem_ctrls_2.totalIdleTime         2682844128772                       # Total Idle time Per DRAM Rank
system.mem_ctrls_2.memoryStateTime::IDLE  14352585521                       # Time in different power states
system.mem_ctrls_2.memoryStateTime::REF   54903450000                       # Time in different power states
system.mem_ctrls_2.memoryStateTime::SREF 1701321613381                       # Time in different power states
system.mem_ctrls_2.memoryStateTime::PRE_PDN 299431096506                       # Time in different power states
system.mem_ctrls_2.memoryStateTime::ACT  183701451707                       # Time in different power states
system.mem_ctrls_2.memoryStateTime::ACT_PDN 682091418885                       # Time in different power states
system.mem_ctrls_3.actEnergy             4254802741.863639                       # Energy for activate commands per rank (pJ)
system.mem_ctrls_3.preEnergy             2872285259.477685                       # Energy for precharge commands per rank (pJ)
system.mem_ctrls_3.readEnergy            13779750530.151379                       # Energy for read commands per rank (pJ)
system.mem_ctrls_3.writeEnergy           7339054439.506507                       # Energy for write commands per rank (pJ)
system.mem_ctrls_3.refreshEnergy         60908098342.459892                       # Energy for refresh commands per rank (pJ)
system.mem_ctrls_3.actBackEnergy         60497151588.953781                       # Energy for active background per rank (pJ)
system.mem_ctrls_3.preBackEnergy         3366918861.528106                       # Energy for precharge background per rank (pJ)
system.mem_ctrls_3.actPowerDownEnergy    136339212775.885910                       # Energy for active power-down per rank (pJ)
system.mem_ctrls_3.prePowerDownEnergy    36533812527.186249                       # Energy for precharge power-down per rank (pJ)
system.mem_ctrls_3.selfRefreshEnergy     255033966061.801208                       # Energy for self refresh per rank (pJ)
system.mem_ctrls_3.totalEnergy           581271212857.604492                       # Total energy per rank (pJ)
system.mem_ctrls_3.averagePower            197.994037                       # Core power per rank (mW)
system.mem_ctrls_3.totalIdleTime         2677106189588                       # Total Idle time Per DRAM Rank
system.mem_ctrls_3.memoryStateTime::IDLE  14755604065                       # Time in different power states
system.mem_ctrls_3.memoryStateTime::REF   55850550000                       # Time in different power states
system.mem_ctrls_3.memoryStateTime::SREF 1679878066523                       # Time in different power states
system.mem_ctrls_3.memoryStateTime::PRE_PDN 304448379654                       # Time in different power states
system.mem_ctrls_3.memoryStateTime::ACT  188089078839                       # Time in different power states
system.mem_ctrls_3.memoryStateTime::ACT_PDN 692779936919                       # Time in different power states
system.pwrStateResidencyTicks::UNDEFINED 2935801616000                       # Cumulative time (in ticks) in various power states
system.cpu.branchPred.lookups               591115340                       # Number of BP lookups
system.cpu.branchPred.condPredicted         413376058                       # Number of conditional branches predicted
system.cpu.branchPred.condIncorrect           8548872                       # Number of conditional branches incorrect
system.cpu.branchPred.BTBLookups            375605594                       # Number of BTB lookups
system.cpu.branchPred.BTBHits               366276976                       # Number of BTB hits
system.cpu.branchPred.BTBCorrect                    0                       # Number of correct BTB predictions (this stat may not work properly.
system.cpu.branchPred.BTBHitPct             97.516379                       # BTB Hit Percentage
system.cpu.branchPred.usedRAS                81184921                       # Number of times the RAS was used to get a target.
system.cpu.branchPred.RASInCorrect                  8                       # Number of incorrect RAS predictions.
system.cpu.branchPred.indirectLookups            3906                       # Number of indirect predictor lookups.
system.cpu.branchPred.indirectHits               2908                       # Number of indirect target hits.
system.cpu.branchPred.indirectMisses              998                       # Number of indirect misses.
system.cpu.branchPredindirectMispredicted          638                       # Number of mispredicted indirect branches.
system.cpu_voltage_domain.voltage                   1                       # Voltage in Volts
system.cpu_clk_domain.clock                       500                       # Clock period in ticks
system.cpu.dstage2_mmu.stage2_tlb.walker.pwrStateResidencyTicks::UNDEFINED 2935801616000                       # Cumulative time (in ticks) in various power states
system.cpu.dstage2_mmu.stage2_tlb.walker.walks            0                       # Table walker walks requested
system.cpu.dstage2_mmu.stage2_tlb.walker.walkRequestOrigin_Requested::Data            0                       # Table walker requests started/completed, data/inst
system.cpu.dstage2_mmu.stage2_tlb.walker.walkRequestOrigin_Requested::Inst            0                       # Table walker requests started/completed, data/inst
system.cpu.dstage2_mmu.stage2_tlb.walker.walkRequestOrigin_Requested::total            0                       # Table walker requests started/completed, data/inst
system.cpu.dstage2_mmu.stage2_tlb.walker.walkRequestOrigin_Completed::Data            0                       # Table walker requests started/completed, data/inst
system.cpu.dstage2_mmu.stage2_tlb.walker.walkRequestOrigin_Completed::Inst            0                       # Table walker requests started/completed, data/inst
system.cpu.dstage2_mmu.stage2_tlb.walker.walkRequestOrigin_Completed::total            0                       # Table walker requests started/completed, data/inst
system.cpu.dstage2_mmu.stage2_tlb.walker.walkRequestOrigin::total            0                       # Table walker requests started/completed, data/inst
system.cpu.dstage2_mmu.stage2_tlb.inst_hits            0                       # ITB inst hits
system.cpu.dstage2_mmu.stage2_tlb.inst_misses            0                       # ITB inst misses
system.cpu.dstage2_mmu.stage2_tlb.read_hits            0                       # DTB read hits
system.cpu.dstage2_mmu.stage2_tlb.read_misses            0                       # DTB read misses
system.cpu.dstage2_mmu.stage2_tlb.write_hits            0                       # DTB write hits
system.cpu.dstage2_mmu.stage2_tlb.write_misses            0                       # DTB write misses
system.cpu.dstage2_mmu.stage2_tlb.flush_tlb            0                       # Number of times complete TLB was flushed
system.cpu.dstage2_mmu.stage2_tlb.flush_tlb_mva            0                       # Number of times TLB was flushed by MVA
system.cpu.dstage2_mmu.stage2_tlb.flush_tlb_mva_asid            0                       # Number of times TLB was flushed by MVA & ASID
system.cpu.dstage2_mmu.stage2_tlb.flush_tlb_asid            0                       # Number of times TLB was flushed by ASID
system.cpu.dstage2_mmu.stage2_tlb.flush_entries            0                       # Number of entries that have been flushed from TLB
system.cpu.dstage2_mmu.stage2_tlb.align_faults            0                       # Number of TLB faults due to alignment restrictions
system.cpu.dstage2_mmu.stage2_tlb.prefetch_faults            0                       # Number of TLB faults due to prefetch
system.cpu.dstage2_mmu.stage2_tlb.domain_faults            0                       # Number of TLB faults due to domain restrictions
system.cpu.dstage2_mmu.stage2_tlb.perms_faults            0                       # Number of TLB faults due to permissions restrictions
system.cpu.dstage2_mmu.stage2_tlb.read_accesses            0                       # DTB read accesses
system.cpu.dstage2_mmu.stage2_tlb.write_accesses            0                       # DTB write accesses
system.cpu.dstage2_mmu.stage2_tlb.inst_accesses            0                       # ITB inst accesses
system.cpu.dstage2_mmu.stage2_tlb.hits              0                       # DTB hits
system.cpu.dstage2_mmu.stage2_tlb.misses            0                       # DTB misses
system.cpu.dstage2_mmu.stage2_tlb.accesses            0                       # DTB accesses
system.cpu.dtb.walker.pwrStateResidencyTicks::UNDEFINED 2935801616000                       # Cumulative time (in ticks) in various power states
system.cpu.dtb.walker.walks                         0                       # Table walker walks requested
system.cpu.dtb.walker.walkRequestOrigin_Requested::Data            0                       # Table walker requests started/completed, data/inst
system.cpu.dtb.walker.walkRequestOrigin_Requested::Inst            0                       # Table walker requests started/completed, data/inst
system.cpu.dtb.walker.walkRequestOrigin_Requested::total            0                       # Table walker requests started/completed, data/inst
system.cpu.dtb.walker.walkRequestOrigin_Completed::Data            0                       # Table walker requests started/completed, data/inst
system.cpu.dtb.walker.walkRequestOrigin_Completed::Inst            0                       # Table walker requests started/completed, data/inst
system.cpu.dtb.walker.walkRequestOrigin_Completed::total            0                       # Table walker requests started/completed, data/inst
system.cpu.dtb.walker.walkRequestOrigin::total            0                       # Table walker requests started/completed, data/inst
system.cpu.dtb.inst_hits                            0                       # ITB inst hits
system.cpu.dtb.inst_misses                          0                       # ITB inst misses
system.cpu.dtb.read_hits                            0                       # DTB read hits
system.cpu.dtb.read_misses                          0                       # DTB read misses
system.cpu.dtb.write_hits                           0                       # DTB write hits
system.cpu.dtb.write_misses                         0                       # DTB write misses
system.cpu.dtb.flush_tlb                            0                       # Number of times complete TLB was flushed
system.cpu.dtb.flush_tlb_mva                        0                       # Number of times TLB was flushed by MVA
system.cpu.dtb.flush_tlb_mva_asid                   0                       # Number of times TLB was flushed by MVA & ASID
system.cpu.dtb.flush_tlb_asid                       0                       # Number of times TLB was flushed by ASID
system.cpu.dtb.flush_entries                        0                       # Number of entries that have been flushed from TLB
system.cpu.dtb.align_faults                         0                       # Number of TLB faults due to alignment restrictions
system.cpu.dtb.prefetch_faults                      0                       # Number of TLB faults due to prefetch
system.cpu.dtb.domain_faults                        0                       # Number of TLB faults due to domain restrictions
system.cpu.dtb.perms_faults                         0                       # Number of TLB faults due to permissions restrictions
system.cpu.dtb.read_accesses                        0                       # DTB read accesses
system.cpu.dtb.write_accesses                       0                       # DTB write accesses
system.cpu.dtb.inst_accesses                        0                       # ITB inst accesses
system.cpu.dtb.hits                                 0                       # DTB hits
system.cpu.dtb.misses                               0                       # DTB misses
system.cpu.dtb.accesses                             0                       # DTB accesses
system.cpu.istage2_mmu.stage2_tlb.walker.pwrStateResidencyTicks::UNDEFINED 2935801616000                       # Cumulative time (in ticks) in various power states
system.cpu.istage2_mmu.stage2_tlb.walker.walks            0                       # Table walker walks requested
system.cpu.istage2_mmu.stage2_tlb.walker.walkRequestOrigin_Requested::Data            0                       # Table walker requests started/completed, data/inst
system.cpu.istage2_mmu.stage2_tlb.walker.walkRequestOrigin_Requested::Inst            0                       # Table walker requests started/completed, data/inst
system.cpu.istage2_mmu.stage2_tlb.walker.walkRequestOrigin_Requested::total            0                       # Table walker requests started/completed, data/inst
system.cpu.istage2_mmu.stage2_tlb.walker.walkRequestOrigin_Completed::Data            0                       # Table walker requests started/completed, data/inst
system.cpu.istage2_mmu.stage2_tlb.walker.walkRequestOrigin_Completed::Inst            0                       # Table walker requests started/completed, data/inst
system.cpu.istage2_mmu.stage2_tlb.walker.walkRequestOrigin_Completed::total            0                       # Table walker requests started/completed, data/inst
system.cpu.istage2_mmu.stage2_tlb.walker.walkRequestOrigin::total            0                       # Table walker requests started/completed, data/inst
system.cpu.istage2_mmu.stage2_tlb.inst_hits            0                       # ITB inst hits
system.cpu.istage2_mmu.stage2_tlb.inst_misses            0                       # ITB inst misses
system.cpu.istage2_mmu.stage2_tlb.read_hits            0                       # DTB read hits
system.cpu.istage2_mmu.stage2_tlb.read_misses            0                       # DTB read misses
system.cpu.istage2_mmu.stage2_tlb.write_hits            0                       # DTB write hits
system.cpu.istage2_mmu.stage2_tlb.write_misses            0                       # DTB write misses
system.cpu.istage2_mmu.stage2_tlb.flush_tlb            0                       # Number of times complete TLB was flushed
system.cpu.istage2_mmu.stage2_tlb.flush_tlb_mva            0                       # Number of times TLB was flushed by MVA
system.cpu.istage2_mmu.stage2_tlb.flush_tlb_mva_asid            0                       # Number of times TLB was flushed by MVA & ASID
system.cpu.istage2_mmu.stage2_tlb.flush_tlb_asid            0                       # Number of times TLB was flushed by ASID
system.cpu.istage2_mmu.stage2_tlb.flush_entries            0                       # Number of entries that have been flushed from TLB
system.cpu.istage2_mmu.stage2_tlb.align_faults            0                       # Number of TLB faults due to alignment restrictions
system.cpu.istage2_mmu.stage2_tlb.prefetch_faults            0                       # Number of TLB faults due to prefetch
system.cpu.istage2_mmu.stage2_tlb.domain_faults            0                       # Number of TLB faults due to domain restrictions
system.cpu.istage2_mmu.stage2_tlb.perms_faults            0                       # Number of TLB faults due to permissions restrictions
system.cpu.istage2_mmu.stage2_tlb.read_accesses            0                       # DTB read accesses
system.cpu.istage2_mmu.stage2_tlb.write_accesses            0                       # DTB write accesses
system.cpu.istage2_mmu.stage2_tlb.inst_accesses            0                       # ITB inst accesses
system.cpu.istage2_mmu.stage2_tlb.hits              0                       # DTB hits
system.cpu.istage2_mmu.stage2_tlb.misses            0                       # DTB misses
system.cpu.istage2_mmu.stage2_tlb.accesses            0                       # DTB accesses
system.cpu.itb.walker.pwrStateResidencyTicks::UNDEFINED 2935801616000                       # Cumulative time (in ticks) in various power states
system.cpu.itb.walker.walks                         0                       # Table walker walks requested
system.cpu.itb.walker.walkRequestOrigin_Requested::Data            0                       # Table walker requests started/completed, data/inst
system.cpu.itb.walker.walkRequestOrigin_Requested::Inst            0                       # Table walker requests started/completed, data/inst
system.cpu.itb.walker.walkRequestOrigin_Requested::total            0                       # Table walker requests started/completed, data/inst
[...]
system.l2.demand_miss_rate::.cpu.data        0.669320                       # miss rate for demand accesses
system.l2.demand_miss_rate::total            0.669180                       # miss rate for demand accesses
system.l2.overall_miss_rate::.cpu.inst       0.392383                       # miss rate for overall accesses
system.l2.overall_miss_rate::.cpu.data       0.669320                       # miss rate for overall accesses
system.l2.overall_miss_rate::total           0.669180                       # miss rate for overall accesses
system.l2.ReadExReq_avg_miss_latency::.cpu.data 88376.047860                       # average ReadExReq miss latency
system.l2.ReadExReq_avg_miss_latency::total 88376.047860                       # average ReadExReq miss latency
system.l2.ReadCleanReq_avg_miss_latency::.cpu.inst 108993.454273                       # average ReadCleanReq miss latency
system.l2.ReadCleanReq_avg_miss_latency::total 108993.454273                       # average ReadCleanReq miss latency
system.l2.ReadSharedReq_avg_miss_latency::.cpu.data 82564.860238                       # average ReadSharedReq miss latency
system.l2.ReadSharedReq_avg_miss_latency::total 82564.860238                       # average ReadSharedReq miss latency
system.l2.demand_avg_miss_latency::.cpu.inst 108993.454273                       # average overall miss latency
system.l2.demand_avg_miss_latency::.cpu.data 83930.743471                       # average overall miss latency
system.l2.demand_avg_miss_latency::total 83938.177514                       # average overall miss latency
system.l2.overall_avg_miss_latency::.cpu.inst 108993.454273                       # average overall miss latency
system.l2.overall_avg_miss_latency::.cpu.data 83930.743471                       # average overall miss latency
system.l2.overall_avg_miss_latency::total 83938.177514                       # average overall miss latency
system.l2.blocked_cycles::no_mshrs                  0                       # number of cycles access was blocked
system.l2.blocked_cycles::no_targets                0                       # number of cycles access was blocked
system.l2.blocked::no_mshrs                         0                       # number of cycles access was blocked
system.l2.blocked::no_targets                       0                       # number of cycles access was blocked
system.l2.avg_blocked_cycles::no_mshrs            nan                       # average number of cycles each access was blocked
system.l2.avg_blocked_cycles::no_targets          nan                       # average number of cycles each access was blocked
system.l2.writebacks::.writebacks            10391885                       # number of writebacks
system.l2.writebacks::total                  10391885                       # number of writebacks
system.l2.ReadCleanReq_mshr_hits::.cpu.inst            1                       # number of ReadCleanReq MSHR hits
system.l2.ReadCleanReq_mshr_hits::total             1                       # number of ReadCleanReq MSHR hits
system.l2.demand_mshr_hits::.cpu.inst               1                       # number of demand (read+write) MSHR hits
system.l2.demand_mshr_hits::total                   1                       # number of demand (read+write) MSHR hits
system.l2.overall_mshr_hits::.cpu.inst              1                       # number of overall MSHR hits
system.l2.overall_mshr_hits::total                  1                       # number of overall MSHR hits
system.l2.CleanEvict_mshr_misses::.writebacks           74                       # number of CleanEvict MSHR misses
system.l2.CleanEvict_mshr_misses::total            74                       # number of CleanEvict MSHR misses
system.l2.ReadExReq_mshr_misses::.cpu.data      4235776                       # number of ReadExReq MSHR misses
system.l2.ReadExReq_mshr_misses::total        4235776                       # number of ReadExReq MSHR misses
system.l2.ReadCleanReq_mshr_misses::.cpu.inst         5346                       # number of ReadCleanReq MSHR misses
system.l2.ReadCleanReq_mshr_misses::total         5346                       # number of ReadCleanReq MSHR misses
system.l2.ReadSharedReq_mshr_misses::.cpu.data     13785449                       # number of ReadSharedReq MSHR misses
system.l2.ReadSharedReq_mshr_misses::total     13785449                       # number of ReadSharedReq MSHR misses
system.l2.InvalidateReq_mshr_misses::.cpu.data      1418717                       # number of InvalidateReq MSHR misses
system.l2.InvalidateReq_mshr_misses::total      1418717                       # number of InvalidateReq MSHR misses
system.l2.demand_mshr_misses::.cpu.inst          5346                       # number of demand (read+write) MSHR misses
system.l2.demand_mshr_misses::.cpu.data      18021225                       # number of demand (read+write) MSHR misses
system.l2.demand_mshr_misses::total          18026571                       # number of demand (read+write) MSHR misses
system.l2.overall_mshr_misses::.cpu.inst         5346                       # number of overall MSHR misses
system.l2.overall_mshr_misses::.cpu.data     18021225                       # number of overall MSHR misses
system.l2.overall_mshr_misses::total         18026571                       # number of overall MSHR misses
system.l2.ReadExReq_mshr_miss_latency::.cpu.data 331404644378                       # number of ReadExReq MSHR miss cycles
system.l2.ReadExReq_mshr_miss_latency::total 331404644378                       # number of ReadExReq MSHR miss cycles
system.l2.ReadCleanReq_mshr_miss_latency::.cpu.inst    528299502                       # number of ReadCleanReq MSHR miss cycles
system.l2.ReadCleanReq_mshr_miss_latency::total    528299502                       # number of ReadCleanReq MSHR miss cycles
system.l2.ReadSharedReq_mshr_miss_latency::.cpu.data 998121800500                       # number of ReadSharedReq MSHR miss cycles
system.l2.ReadSharedReq_mshr_miss_latency::total 998121800500                       # number of ReadSharedReq MSHR miss cycles
system.l2.InvalidateReq_mshr_miss_latency::.cpu.data  24326440236                       # number of InvalidateReq MSHR miss cycles
system.l2.InvalidateReq_mshr_miss_latency::total  24326440236                       # number of InvalidateReq MSHR miss cycles
system.l2.demand_mshr_miss_latency::.cpu.inst    528299502                       # number of demand (read+write) MSHR miss cycles
system.l2.demand_mshr_miss_latency::.cpu.data 1329526444878                       # number of demand (read+write) MSHR miss cycles
system.l2.demand_mshr_miss_latency::total 1330054744380                       # number of demand (read+write) MSHR miss cycles
system.l2.overall_mshr_miss_latency::.cpu.inst    528299502                       # number of overall MSHR miss cycles
system.l2.overall_mshr_miss_latency::.cpu.data 1329526444878                       # number of overall MSHR miss cycles
system.l2.overall_mshr_miss_latency::total 1330054744380                       # number of overall MSHR miss cycles
system.l2.CleanEvict_mshr_miss_rate::.writebacks          inf                       # mshr miss rate for CleanEvict accesses
system.l2.CleanEvict_mshr_miss_rate::total          inf                       # mshr miss rate for CleanEvict accesses
system.l2.ReadExReq_mshr_miss_rate::.cpu.data     0.924627                       # mshr miss rate for ReadExReq accesses
system.l2.ReadExReq_mshr_miss_rate::total     0.924627                       # mshr miss rate for ReadExReq accesses
system.l2.ReadCleanReq_mshr_miss_rate::.cpu.inst     0.392309                       # mshr miss rate for ReadCleanReq accesses
system.l2.ReadCleanReq_mshr_miss_rate::total     0.392309                       # mshr miss rate for ReadCleanReq accesses
system.l2.ReadSharedReq_mshr_miss_rate::.cpu.data     0.616975                       # mshr miss rate for ReadSharedReq accesses
system.l2.ReadSharedReq_mshr_miss_rate::total     0.616975                       # mshr miss rate for ReadSharedReq accesses
system.l2.InvalidateReq_mshr_miss_rate::.cpu.data     0.981350                       # mshr miss rate for InvalidateReq accesses
system.l2.InvalidateReq_mshr_miss_rate::total     0.981350                       # mshr miss rate for InvalidateReq accesses
system.l2.demand_mshr_miss_rate::.cpu.inst     0.392309                       # mshr miss rate for demand accesses
system.l2.demand_mshr_miss_rate::.cpu.data     0.669320                       # mshr miss rate for demand accesses
system.l2.demand_mshr_miss_rate::total       0.669180                       # mshr miss rate for demand accesses
system.l2.overall_mshr_miss_rate::.cpu.inst     0.392309                       # mshr miss rate for overall accesses
system.l2.overall_mshr_miss_rate::.cpu.data     0.669320                       # mshr miss rate for overall accesses
system.l2.overall_mshr_miss_rate::total      0.669180                       # mshr miss rate for overall accesses
system.l2.ReadExReq_avg_mshr_miss_latency::.cpu.data 78239.416904                       # average ReadExReq mshr miss latency
system.l2.ReadExReq_avg_mshr_miss_latency::total 78239.416904                       # average ReadExReq mshr miss latency
system.l2.ReadCleanReq_avg_mshr_miss_latency::.cpu.inst 98821.455668                       # average ReadCleanReq mshr miss latency
system.l2.ReadCleanReq_avg_mshr_miss_latency::total 98821.455668                       # average ReadCleanReq mshr miss latency
system.l2.ReadSharedReq_avg_mshr_miss_latency::.cpu.data 72404.010961                       # average ReadSharedReq mshr miss latency
system.l2.ReadSharedReq_avg_mshr_miss_latency::total 72404.010961                       # average ReadSharedReq mshr miss latency
system.l2.InvalidateReq_avg_mshr_miss_latency::.cpu.data 17146.788426                       # average InvalidateReq mshr miss latency
system.l2.InvalidateReq_avg_mshr_miss_latency::total 17146.788426                       # average InvalidateReq mshr miss latency
system.l2.demand_avg_mshr_miss_latency::.cpu.inst 98821.455668                       # average overall mshr miss latency
system.l2.demand_avg_mshr_miss_latency::.cpu.data 73775.586559                       # average overall mshr miss latency
system.l2.demand_avg_mshr_miss_latency::total 73783.014217                       # average overall mshr miss latency
system.l2.overall_avg_mshr_miss_latency::.cpu.inst 98821.455668                       # average overall mshr miss latency
system.l2.overall_avg_mshr_miss_latency::.cpu.data 73775.586559                       # average overall mshr miss latency
system.l2.overall_avg_mshr_miss_latency::total 73783.014217                       # average overall mshr miss latency
system.l2.replacements                       19434321                       # number of replacements
system.membus.snoop_filter.tot_requests      38874252                       # Total number of requests made to the snoop filter.
system.membus.snoop_filter.hit_single_requests     19428965                       # Number of requests hitting in the snoop filter with a single holder of the requested data.
system.membus.snoop_filter.hit_multi_requests            0                       # Number of requests hitting in the snoop filter with multiple (>1) holders of the requested data.
system.membus.snoop_filter.tot_snoops               0                       # Total number of snoops made to the snoop filter.
system.membus.snoop_filter.hit_single_snoops            0                       # Number of snoops hitting in the snoop filter with a single holder of the requested data.
system.membus.snoop_filter.hit_multi_snoops            0                       # Number of snoops hitting in the snoop filter with multiple (>1) holders of the requested data.
system.membus.pwrStateResidencyTicks::UNDEFINED 2935801616000                       # Cumulative time (in ticks) in various power states
system.membus.trans_dist::ReadResp           13790793                       # Transaction distribution
system.membus.trans_dist::WritebackDirty     10391885                       # Transaction distribution
system.membus.trans_dist::CleanEvict          9036922                       # Transaction distribution
system.membus.trans_dist::ReadExReq           4235776                       # Transaction distribution
system.membus.trans_dist::ReadExResp          4235776                       # Transaction distribution
system.membus.trans_dist::ReadSharedReq      13790795                       # Transaction distribution
system.membus.trans_dist::InvalidateReq       1418717                       # Transaction distribution
system.membus.pkt_count_system.l2.mem_side::system.mem_ctrls.port     56900664                       # Packet count per connected master and slave (bytes)
system.membus.pkt_count::total               56900664                       # Packet count per connected master and slave (bytes)
system.membus.pkt_size_system.l2.mem_side::system.mem_ctrls.port   1818781056                       # Cumulative packet size per connected master and slave (bytes)
system.membus.pkt_size::total              1818781056                       # Cumulative packet size per connected master and slave (bytes)
system.membus.snoops                                0                       # Total snoops (count)
system.membus.snoopTraffic                          0                       # Total snoop traffic (bytes)
system.membus.snoop_fanout::samples          19445288                       # Request fanout histogram
system.membus.snoop_fanout::mean                    0                       # Request fanout histogram
system.membus.snoop_fanout::stdev                   0                       # Request fanout histogram
system.membus.snoop_fanout::underflows              0      0.00%      0.00% # Request fanout histogram
system.membus.snoop_fanout::0                19445288    100.00%    100.00% # Request fanout histogram
system.membus.snoop_fanout::1                       0      0.00%    100.00% # Request fanout histogram
system.membus.snoop_fanout::overflows               0      0.00%    100.00% # Request fanout histogram
system.membus.snoop_fanout::min_value               0                       # Request fanout histogram
system.membus.snoop_fanout::max_value               0                       # Request fanout histogram
system.membus.snoop_fanout::total            19445288                       # Request fanout histogram
system.membus.reqLayer0.occupancy         57697881226                       # Layer occupancy (ticks)
system.membus.reqLayer0.utilization               2.0                       # Layer utilization (%)
system.membus.respLayer1.occupancy        61411676261                       # Layer occupancy (ticks)
system.membus.respLayer1.utilization              2.1                       # Layer utilization (%)
system.tol2bus.snoop_filter.tot_requests     56767061                       # Total number of requests made to the snoop filter.
system.tol2bus.snoop_filter.hit_single_requests     28383066                       # Number of requests hitting in the snoop filter with a single holder of the requested data.
system.tol2bus.snoop_filter.hit_multi_requests            3                       # Number of requests hitting in the snoop filter with multiple (>1) holders of the requested data.
system.tol2bus.snoop_filter.tot_snoops           5588                       # Total number of snoops made to the snoop filter.
system.tol2bus.snoop_filter.hit_single_snoops         5588                       # Number of snoops hitting in the snoop filter with a single holder of the requested data.
system.tol2bus.snoop_filter.hit_multi_snoops            0                       # Number of snoops hitting in the snoop filter with multiple (>1) holders of the requested data.
system.tol2bus.pwrStateResidencyTicks::UNDEFINED 2935801616000                       # Cumulative time (in ticks) in various power states
system.tol2bus.trans_dist::ReadResp          22357223                       # Transaction distribution
system.tol2bus.trans_dist::WritebackDirty     28622458                       # Transaction distribution
system.tol2bus.trans_dist::WritebackClean        13113                       # Transaction distribution
system.tol2bus.trans_dist::CleanEvict        19181695                       # Transaction distribution
system.tol2bus.trans_dist::ReadExReq          4581067                       # Transaction distribution
system.tol2bus.trans_dist::ReadExResp         4581067                       # Transaction distribution
system.tol2bus.trans_dist::ReadCleanReq         13627                       # Transaction distribution
system.tol2bus.trans_dist::ReadSharedReq     22343598                       # Transaction distribution
system.tol2bus.trans_dist::InvalidateReq      1445679                       # Transaction distribution
system.tol2bus.trans_dist::InvalidateResp      1445679                       # Transaction distribution
system.tol2bus.pkt_count_system.cpu.icache.mem_side::system.l2.cpu_side        40365                       # Packet count per connected master and slave (bytes)
system.tol2bus.pkt_count_system.cpu.dcache.mem_side::system.l2.cpu_side     85110520                       # Packet count per connected master and slave (bytes)
system.tol2bus.pkt_count::total              85150885                       # Packet count per connected master and slave (bytes)
system.tol2bus.pkt_size_system.cpu.icache.mem_side::system.l2.cpu_side      1711232                       # Cumulative packet size per connected master and slave (bytes)
system.tol2bus.pkt_size_system.cpu.dcache.mem_side::system.l2.cpu_side   2889935232                       # Cumulative packet size per connected master and slave (bytes)
system.tol2bus.pkt_size::total             2891646464                       # Cumulative packet size per connected master and slave (bytes)
system.tol2bus.snoops                        19434321                       # Total snoops (count)
system.tol2bus.snoopTraffic                 665080640                       # Total snoop traffic (bytes)
system.tol2bus.snoop_fanout::samples         47818318                       # Request fanout histogram
system.tol2bus.snoop_fanout::mean            0.000117                       # Request fanout histogram
system.tol2bus.snoop_fanout::stdev           0.010814                       # Request fanout histogram
system.tol2bus.snoop_fanout::underflows             0      0.00%      0.00% # Request fanout histogram
system.tol2bus.snoop_fanout::0               47812725     99.99%     99.99% # Request fanout histogram
system.tol2bus.snoop_fanout::1                   5593      0.01%    100.00% # Request fanout histogram
system.tol2bus.snoop_fanout::2                      0      0.00%    100.00% # Request fanout histogram
system.tol2bus.snoop_fanout::overflows              0      0.00%    100.00% # Request fanout histogram
system.tol2bus.snoop_fanout::min_value              0                       # Request fanout histogram
system.tol2bus.snoop_fanout::max_value              1                       # Request fanout histogram
system.tol2bus.snoop_fanout::total           47818318                       # Request fanout histogram
system.tol2bus.reqLayer0.occupancy        46627255153                       # Layer occupancy (ticks)
system.tol2bus.reqLayer0.utilization              1.6                       # Layer utilization (%)
system.tol2bus.respLayer0.occupancy          20440993                       # Layer occupancy (ticks)
system.tol2bus.respLayer0.utilization             0.0                       # Layer utilization (%)
system.tol2bus.respLayer1.occupancy       41109866270                       # Layer occupancy (ticks)
system.tol2bus.respLayer1.utilization             1.4                       # Layer utilization (%)

---------- End Simulation Statistics   ----------
