
---------- Begin Simulation Statistics ----------
sim_seconds                                196.046816                       # Number of seconds simulated
sim_ticks                                196046815647500                       # Number of ticks simulated
final_tick                               196046815647500                       # Number of ticks from beginning of simulation (restored from checkpoints and never reset)
sim_freq                                 1000000000000                       # Frequency of simulated ticks
host_inst_rate                                 340434                       # Simulator instruction rate (inst/s)
host_op_rate                                   364414                       # Simulator op (including micro ops) rate (op/s)
host_tick_rate                            21317572125                       # Simulator tick rate (ticks/s)
host_mem_usage                                4397016                       # Number of bytes of host memory used
host_seconds                                  9196.49                       # Real time elapsed on the host
sim_insts                                  3130801356                       # Number of instructions simulated
sim_ops                                    3351333164                       # Number of ops (including micro ops) simulated
system.voltage_domain.voltage                       1                       # Voltage in Volts
system.clk_domain.clock                           625                       # Clock period in ticks
system.mem_ctrls.pwrStateResidencyTicks::UNDEFINED 196046815647500                       # Cumulative time (in ticks) in various power states
system.mem_ctrls.bytes_read::.cpu.inst    12523206668                       # Number of bytes read from this memory
system.mem_ctrls.bytes_read::.cpu.data     3253811948                       # Number of bytes read from this memory
system.mem_ctrls.bytes_read::total        15777018616                       # Number of bytes read from this memory
system.mem_ctrls.bytes_inst_read::.cpu.inst  12523206668                       # Number of instructions bytes read from this memory
system.mem_ctrls.bytes_inst_read::total   12523206668                       # Number of instructions bytes read from this memory
system.mem_ctrls.bytes_written::.cpu.data   1905084247                       # Number of bytes written to this memory
system.mem_ctrls.bytes_written::total      1905084247                       # Number of bytes written to this memory
system.mem_ctrls.num_reads::.cpu.inst      3130801667                       # Number of read requests responded to by this memory
system.mem_ctrls.num_reads::.cpu.data       413399280                       # Number of read requests responded to by this memory
system.mem_ctrls.num_reads::total          3544200947                       # Number of read requests responded to by this memory
system.mem_ctrls.num_writes::.cpu.data      297352287                       # Number of write requests responded to by this memory
system.mem_ctrls.num_writes::total          297352287                       # Number of write requests responded to by this memory
system.mem_ctrls.bw_read::.cpu.inst          63878654                       # Total read bandwidth from this memory (bytes/s)
system.mem_ctrls.bw_read::.cpu.data          16597117                       # Total read bandwidth from this memory (bytes/s)
system.mem_ctrls.bw_read::total              80475771                       # Total read bandwidth from this memory (bytes/s)
system.mem_ctrls.bw_inst_read::.cpu.inst     63878654                       # Instruction read bandwidth from this memory (bytes/s)
system.mem_ctrls.bw_inst_read::total         63878654                       # Instruction read bandwidth from this memory (bytes/s)
system.mem_ctrls.bw_write::.cpu.data          9717497                       # Write bandwidth from this memory (bytes/s)
system.mem_ctrls.bw_write::total              9717497                       # Write bandwidth from this memory (bytes/s)
system.mem_ctrls.bw_total::.cpu.inst         63878654                       # Total bandwidth to/from this memory (bytes/s)
system.mem_ctrls.bw_total::.cpu.data         26314614                       # Total bandwidth to/from this memory (bytes/s)
system.mem_ctrls.bw_total::total             90193267                       # Total bandwidth to/from this memory (bytes/s)
system.mem_ctrls.avgPriority_.cpu.inst::samples 3130801668.00                       # Average QoS priority value for accepted requests
system.mem_ctrls.avgPriority_.cpu.data::samples 365113853.00                       # Average QoS priority value for accepted requests
system.mem_ctrls.priorityMinLatency      0.000000017492                       # per QoS priority minimum request to response latency (s)
system.mem_ctrls.priorityMaxLatency      13.056544667652                       # per QoS priority maximum request to response latency (s)
system.mem_ctrls.numReadWriteTurnArounds       830196                       # Number of turnarounds from READ to WRITE
system.mem_ctrls.numWriteReadTurnArounds       830196                       # Number of turnarounds from WRITE to READ
system.mem_ctrls.numStayReadState          7326479665                       # Number of times bus staying in READ state
system.mem_ctrls.numStayWriteState           13024922                       # Number of times bus staying in WRITE state
system.mem_ctrls.readReqs                  3544200948                       # Number of read requests accepted
system.mem_ctrls.writeReqs                  297352287                       # Number of write requests accepted
system.mem_ctrls.readBursts                3544200948                       # Number of DRAM read bursts, including those serviced by the write queue
system.mem_ctrls.writeBursts                297352287                       # Number of DRAM write bursts, including those merged in the write queue
system.mem_ctrls.bytesReadDRAM           222885577344                       # Total number of bytes read from DRAM
system.mem_ctrls.bytesReadWrQ              3943283328                       # Total number of bytes read from write queue
system.mem_ctrls.bytesWritten               853012672                       # Total number of bytes written to DRAM
system.mem_ctrls.bytesReadSys             15777018620                       # Total read bytes from the system interface side
system.mem_ctrls.bytesWrittenSys           1905084247                       # Total written bytes from the system interface side
system.mem_ctrls.servicedByWrQ               61613802                       # Number of DRAM read bursts serviced by the write queue
system.mem_ctrls.mergedWrBursts             284023912                       # Number of DRAM write bursts merged with an existing one
system.mem_ctrls.neitherReadNorWriteReqs            0                       # Number of requests that are neither read nor write
system.mem_ctrls.perBankRdBursts::0          14165441                       # Per bank write bursts
system.mem_ctrls.perBankRdBursts::1        1535608256                       # Per bank write bursts
system.mem_ctrls.perBankRdBursts::2         267347077                       # Per bank write bursts
system.mem_ctrls.perBankRdBursts::3           5885584                       # Per bank write bursts
system.mem_ctrls.perBankRdBursts::4         218239523                       # Per bank write bursts
system.mem_ctrls.perBankRdBursts::5          89296804                       # Per bank write bursts
system.mem_ctrls.perBankRdBursts::6           5897068                       # Per bank write bursts
system.mem_ctrls.perBankRdBursts::7           5862428                       # Per bank write bursts
system.mem_ctrls.perBankRdBursts::8          12237582                       # Per bank write bursts
system.mem_ctrls.perBankRdBursts::9           7983158                       # Per bank write bursts
system.mem_ctrls.perBankRdBursts::10          7923583                       # Per bank write bursts
system.mem_ctrls.perBankRdBursts::11        298340750                       # Per bank write bursts
system.mem_ctrls.perBankRdBursts::12          7760056                       # Per bank write bursts
system.mem_ctrls.perBankRdBursts::13          7565662                       # Per bank write bursts
system.mem_ctrls.perBankRdBursts::14          8000357                       # Per bank write bursts
system.mem_ctrls.perBankRdBursts::15          7414038                       # Per bank write bursts
system.mem_ctrls.perBankRdBursts::16          9957775                       # Per bank write bursts
system.mem_ctrls.perBankRdBursts::17          7306849                       # Per bank write bursts
system.mem_ctrls.perBankRdBursts::18          7140589                       # Per bank write bursts
system.mem_ctrls.perBankRdBursts::19          8063134                       # Per bank write bursts
system.mem_ctrls.perBankRdBursts::20          7642323                       # Per bank write bursts
system.mem_ctrls.perBankRdBursts::21          6644714                       # Per bank write bursts
system.mem_ctrls.perBankRdBursts::22          9292432                       # Per bank write bursts
system.mem_ctrls.perBankRdBursts::23        490888691                       # Per bank write bursts
system.mem_ctrls.perBankRdBursts::24          9986100                       # Per bank write bursts
system.mem_ctrls.perBankRdBursts::25          5911168                       # Per bank write bursts
system.mem_ctrls.perBankRdBursts::26         78712116                       # Per bank write bursts
system.mem_ctrls.perBankRdBursts::27         96518524                       # Per bank write bursts
system.mem_ctrls.perBankRdBursts::28          7513273                       # Per bank write bursts
system.mem_ctrls.perBankRdBursts::29          5582271                       # Per bank write bursts
system.mem_ctrls.perBankRdBursts::30        213386970                       # Per bank write bursts
system.mem_ctrls.perBankRdBursts::31         18512850                       # Per bank write bursts
system.mem_ctrls.perBankWrBursts::0            462230                       # Per bank write bursts
system.mem_ctrls.perBankWrBursts::1            514506                       # Per bank write bursts
system.mem_ctrls.perBankWrBursts::2            550725                       # Per bank write bursts
system.mem_ctrls.perBankWrBursts::3            400037                       # Per bank write bursts
system.mem_ctrls.perBankWrBursts::4            398849                       # Per bank write bursts
system.mem_ctrls.perBankWrBursts::5            397582                       # Per bank write bursts
system.mem_ctrls.perBankWrBursts::6            395278                       # Per bank write bursts
system.mem_ctrls.perBankWrBursts::7            393463                       # Per bank write bursts
system.mem_ctrls.perBankWrBursts::8            393643                       # Per bank write bursts
system.mem_ctrls.perBankWrBursts::9            404650                       # Per bank write bursts
system.mem_ctrls.perBankWrBursts::10           403727                       # Per bank write bursts
system.mem_ctrls.perBankWrBursts::11           403254                       # Per bank write bursts
system.mem_ctrls.perBankWrBursts::12           401879                       # Per bank write bursts
system.mem_ctrls.perBankWrBursts::13           399994                       # Per bank write bursts
system.mem_ctrls.perBankWrBursts::14           398312                       # Per bank write bursts
system.mem_ctrls.perBankWrBursts::15           395340                       # Per bank write bursts
system.mem_ctrls.perBankWrBursts::16           399623                       # Per bank write bursts
system.mem_ctrls.perBankWrBursts::17           399537                       # Per bank write bursts
system.mem_ctrls.perBankWrBursts::18           400580                       # Per bank write bursts
system.mem_ctrls.perBankWrBursts::19           406413                       # Per bank write bursts
system.mem_ctrls.perBankWrBursts::20           400044                       # Per bank write bursts
system.mem_ctrls.perBankWrBursts::21           401289                       # Per bank write bursts
system.mem_ctrls.perBankWrBursts::22           397605                       # Per bank write bursts
system.mem_ctrls.perBankWrBursts::23           397195                       # Per bank write bursts
system.mem_ctrls.perBankWrBursts::24           405488                       # Per bank write bursts
system.mem_ctrls.perBankWrBursts::25           405859                       # Per bank write bursts
system.mem_ctrls.perBankWrBursts::26           404770                       # Per bank write bursts
system.mem_ctrls.perBankWrBursts::27           406782                       # Per bank write bursts
system.mem_ctrls.perBankWrBursts::28           405830                       # Per bank write bursts
system.mem_ctrls.perBankWrBursts::29           402465                       # Per bank write bursts
system.mem_ctrls.perBankWrBursts::30           574934                       # Per bank write bursts
system.mem_ctrls.perBankWrBursts::31           406440                       # Per bank write bursts
system.mem_ctrls.numRdRetry                         0                       # Number of times read queue was full causing retry
system.mem_ctrls.numWrRetry                         0                       # Number of times write queue was full causing retry
system.mem_ctrls.totGap                  196046815575000                       # Total gap between requests
system.mem_ctrls.readPktSize::0              11765584                       # Read request sizes (log2)
system.mem_ctrls.readPktSize::1                   235                       # Read request sizes (log2)
system.mem_ctrls.readPktSize::2            3318452949                       # Read request sizes (log2)
system.mem_ctrls.readPktSize::3             116162151                       # Read request sizes (log2)
system.mem_ctrls.readPktSize::4              97820029                       # Read request sizes (log2)
system.mem_ctrls.readPktSize::5                     0                       # Read request sizes (log2)
system.mem_ctrls.readPktSize::6                     0                       # Read request sizes (log2)
system.mem_ctrls.writePktSize::0              7076438                       # Write request sizes (log2)
system.mem_ctrls.writePktSize::1                   27                       # Write request sizes (log2)
system.mem_ctrls.writePktSize::2            126380474                       # Write request sizes (log2)
system.mem_ctrls.writePktSize::3            162408384                       # Write request sizes (log2)
system.mem_ctrls.writePktSize::4                40560                       # Write request sizes (log2)
system.mem_ctrls.writePktSize::5                    0                       # Write request sizes (log2)
system.mem_ctrls.writePktSize::6              1446404                       # Write request sizes (log2)
system.mem_ctrls.rdQLenPdf::0              3481774500                       # What read queue length does an incoming req see
system.mem_ctrls.rdQLenPdf::1                  812646                       # What read queue length does an incoming req see
system.mem_ctrls.rdQLenPdf::2                       0                       # What read queue length does an incoming req see
system.mem_ctrls.rdQLenPdf::3                       0                       # What read queue length does an incoming req see
system.mem_ctrls.rdQLenPdf::4                       0                       # What read queue length does an incoming req see
system.mem_ctrls.rdQLenPdf::5                       0                       # What read queue length does an incoming req see
system.mem_ctrls.rdQLenPdf::6                       0                       # What read queue length does an incoming req see
system.mem_ctrls.rdQLenPdf::7                       0                       # What read queue length does an incoming req see
system.mem_ctrls.rdQLenPdf::8                       0                       # What read queue length does an incoming req see
system.mem_ctrls.rdQLenPdf::9                       0                       # What read queue length does an incoming req see
system.mem_ctrls.rdQLenPdf::10                      0                       # What read queue length does an incoming req see
system.mem_ctrls.rdQLenPdf::11                      0                       # What read queue length does an incoming req see
system.mem_ctrls.rdQLenPdf::12                      0                       # What read queue length does an incoming req see
system.mem_ctrls.rdQLenPdf::13                      0                       # What read queue length does an incoming req see
system.mem_ctrls.rdQLenPdf::14                      0                       # What read queue length does an incoming req see
system.mem_ctrls.rdQLenPdf::15                      0                       # What read queue length does an incoming req see
system.mem_ctrls.rdQLenPdf::16                      0                       # What read queue length does an incoming req see
system.mem_ctrls.rdQLenPdf::17                      0                       # What read queue length does an incoming req see
system.mem_ctrls.rdQLenPdf::18                      0                       # What read queue length does an incoming req see
system.mem_ctrls.rdQLenPdf::19                      0                       # What read queue length does an incoming req see
system.mem_ctrls.rdQLenPdf::20                      0                       # What read queue length does an incoming req see
system.mem_ctrls.rdQLenPdf::21                      0                       # What read queue length does an incoming req see
system.mem_ctrls.rdQLenPdf::22                      0                       # What read queue length does an incoming req see
system.mem_ctrls.rdQLenPdf::23                      0                       # What read queue length does an incoming req see
system.mem_ctrls.rdQLenPdf::24                      0                       # What read queue length does an incoming req see
system.mem_ctrls.rdQLenPdf::25                      0                       # What read queue length does an incoming req see
system.mem_ctrls.rdQLenPdf::26                      0                       # What read queue length does an incoming req see
system.mem_ctrls.rdQLenPdf::27                      0                       # What read queue length does an incoming req see
system.mem_ctrls.rdQLenPdf::28                      0                       # What read queue length does an incoming req see
system.mem_ctrls.rdQLenPdf::29                      0                       # What read queue length does an incoming req see
system.mem_ctrls.rdQLenPdf::30                      0                       # What read queue length does an incoming req see
system.mem_ctrls.rdQLenPdf::31                      0                       # What read queue length does an incoming req see
system.mem_ctrls.rdQLenPdf::32                      0                       # What read queue length does an incoming req see
system.mem_ctrls.rdQLenPdf::33                      0                       # What read queue length does an incoming req see
system.mem_ctrls.rdQLenPdf::34                      0                       # What read queue length does an incoming req see
system.mem_ctrls.rdQLenPdf::35                      0                       # What read queue length does an incoming req see
system.mem_ctrls.rdQLenPdf::36                      0                       # What read queue length does an incoming req see
system.mem_ctrls.rdQLenPdf::37                      0                       # What read queue length does an incoming req see
system.mem_ctrls.rdQLenPdf::38                      0                       # What read queue length does an incoming req see
system.mem_ctrls.rdQLenPdf::39                      0                       # What read queue length does an incoming req see
system.mem_ctrls.rdQLenPdf::40                      0                       # What read queue length does an incoming req see
system.mem_ctrls.rdQLenPdf::41                      0                       # What read queue length does an incoming req see
system.mem_ctrls.rdQLenPdf::42                      0                       # What read queue length does an incoming req see
system.mem_ctrls.rdQLenPdf::43                      0                       # What read queue length does an incoming req see
system.mem_ctrls.rdQLenPdf::44                      0                       # What read queue length does an incoming req see
system.mem_ctrls.rdQLenPdf::45                      0                       # What read queue length does an incoming req see
system.mem_ctrls.rdQLenPdf::46                      0                       # What read queue length does an incoming req see
system.mem_ctrls.rdQLenPdf::47                      0                       # What read queue length does an incoming req see
system.mem_ctrls.rdQLenPdf::48                      0                       # What read queue length does an incoming req see
system.mem_ctrls.rdQLenPdf::49                      0                       # What read queue length does an incoming req see
system.mem_ctrls.rdQLenPdf::50                      0                       # What read queue length does an incoming req see
system.mem_ctrls.rdQLenPdf::51                      0                       # What read queue length does an incoming req see
system.mem_ctrls.rdQLenPdf::52                      0                       # What read queue length does an incoming req see
system.mem_ctrls.rdQLenPdf::53                      0                       # What read queue length does an incoming req see
system.mem_ctrls.rdQLenPdf::54                      0                       # What read queue length does an incoming req see
system.mem_ctrls.rdQLenPdf::55                      0                       # What read queue length does an incoming req see
system.mem_ctrls.rdQLenPdf::56                      0                       # What read queue length does an incoming req see
system.mem_ctrls.rdQLenPdf::57                      0                       # What read queue length does an incoming req see
system.mem_ctrls.rdQLenPdf::58                      0                       # What read queue length does an incoming req see
system.mem_ctrls.rdQLenPdf::59                      0                       # What read queue length does an incoming req see
system.mem_ctrls.rdQLenPdf::60                      0                       # What read queue length does an incoming req see
system.mem_ctrls.rdQLenPdf::61                      0                       # What read queue length does an incoming req see
system.mem_ctrls.rdQLenPdf::62                      0                       # What read queue length does an incoming req see
system.mem_ctrls.rdQLenPdf::63                      0                       # What read queue length does an incoming req see
system.mem_ctrls.wrQLenPdf::0                       1                       # What write queue length does an incoming req see
system.mem_ctrls.wrQLenPdf::1                       1                       # What write queue length does an incoming req see
system.mem_ctrls.wrQLenPdf::2                       1                       # What write queue length does an incoming req see
system.mem_ctrls.wrQLenPdf::3                       1                       # What write queue length does an incoming req see
system.mem_ctrls.wrQLenPdf::4                       1                       # What write queue length does an incoming req see
system.mem_ctrls.wrQLenPdf::5                       1                       # What write queue length does an incoming req see
system.mem_ctrls.wrQLenPdf::6                       1                       # What write queue length does an incoming req see
system.mem_ctrls.wrQLenPdf::7                       1                       # What write queue length does an incoming req see
system.mem_ctrls.wrQLenPdf::8                       1                       # What write queue length does an incoming req see
system.mem_ctrls.wrQLenPdf::9                       1                       # What write queue length does an incoming req see
system.mem_ctrls.wrQLenPdf::10                      1                       # What write queue length does an incoming req see
system.mem_ctrls.wrQLenPdf::11                      1                       # What write queue length does an incoming req see
system.mem_ctrls.wrQLenPdf::12                      1                       # What write queue length does an incoming req see
system.mem_ctrls.wrQLenPdf::13                      1                       # What write queue length does an incoming req see
system.mem_ctrls.wrQLenPdf::14                      1                       # What write queue length does an incoming req see
system.mem_ctrls.wrQLenPdf::15                      1                       # What write queue length does an incoming req see
system.mem_ctrls.wrQLenPdf::16                      1                       # What write queue length does an incoming req see
system.mem_ctrls.wrQLenPdf::17                      1                       # What write queue length does an incoming req see
system.mem_ctrls.wrQLenPdf::18                      1                       # What write queue length does an incoming req see
system.mem_ctrls.wrQLenPdf::19                      1                       # What write queue length does an incoming req see
system.mem_ctrls.wrQLenPdf::20                      1                       # What write queue length does an incoming req see
system.mem_ctrls.wrQLenPdf::21                      1                       # What write queue length does an incoming req see
system.mem_ctrls.wrQLenPdf::22                      1                       # What write queue length does an incoming req see
system.mem_ctrls.wrQLenPdf::23                      1                       # What write queue length does an incoming req see
system.mem_ctrls.wrQLenPdf::24                      1                       # What write queue length does an incoming req see
system.mem_ctrls.wrQLenPdf::25                      1                       # What write queue length does an incoming req see
system.mem_ctrls.wrQLenPdf::26                      1                       # What write queue length does an incoming req see
system.mem_ctrls.wrQLenPdf::27                      1                       # What write queue length does an incoming req see
system.mem_ctrls.wrQLenPdf::28                      1                       # What write queue length does an incoming req see
system.mem_ctrls.wrQLenPdf::29                      1                       # What write queue length does an incoming req see
system.mem_ctrls.wrQLenPdf::30                      1                       # What write queue length does an incoming req see
system.mem_ctrls.wrQLenPdf::31                      1                       # What write queue length does an incoming req see
system.mem_ctrls.wrQLenPdf::32                      1                       # What write queue length does an incoming req see
system.mem_ctrls.wrQLenPdf::33                      1                       # What write queue length does an incoming req see
system.mem_ctrls.wrQLenPdf::34                      1                       # What write queue length does an incoming req see
system.mem_ctrls.wrQLenPdf::35                      1                       # What write queue length does an incoming req see
system.mem_ctrls.wrQLenPdf::36                      1                       # What write queue length does an incoming req see
system.mem_ctrls.wrQLenPdf::37                      1                       # What write queue length does an incoming req see
system.mem_ctrls.wrQLenPdf::38                      1                       # What write queue length does an incoming req see
system.mem_ctrls.wrQLenPdf::39                      1                       # What write queue length does an incoming req see
system.mem_ctrls.wrQLenPdf::40                      1                       # What write queue length does an incoming req see
system.mem_ctrls.wrQLenPdf::41                      1                       # What write queue length does an incoming req see
system.mem_ctrls.wrQLenPdf::42                      1                       # What write queue length does an incoming req see
system.mem_ctrls.wrQLenPdf::43                      1                       # What write queue length does an incoming req see
system.mem_ctrls.wrQLenPdf::44                      1                       # What write queue length does an incoming req see
system.mem_ctrls.wrQLenPdf::45                      1                       # What write queue length does an incoming req see
system.mem_ctrls.wrQLenPdf::46                      1                       # What write queue length does an incoming req see
system.mem_ctrls.wrQLenPdf::47                     60                       # What write queue length does an incoming req see
system.mem_ctrls.wrQLenPdf::48                  45088                       # What write queue length does an incoming req see
system.mem_ctrls.wrQLenPdf::49                 813304                       # What write queue length does an incoming req see
system.mem_ctrls.wrQLenPdf::50                 830197                       # What write queue length does an incoming req see
system.mem_ctrls.wrQLenPdf::51                 830197                       # What write queue length does an incoming req see
system.mem_ctrls.wrQLenPdf::52                 830196                       # What write queue length does an incoming req see
system.mem_ctrls.wrQLenPdf::53                 830208                       # What write queue length does an incoming req see
system.mem_ctrls.wrQLenPdf::54                 832378                       # What write queue length does an incoming req see
system.mem_ctrls.wrQLenPdf::55                 834675                       # What write queue length does an incoming req see
system.mem_ctrls.wrQLenPdf::56                 835665                       # What write queue length does an incoming req see
system.mem_ctrls.wrQLenPdf::57                 832063                       # What write queue length does an incoming req see
system.mem_ctrls.wrQLenPdf::58                 831479                       # What write queue length does an incoming req see
system.mem_ctrls.wrQLenPdf::59                 830855                       # What write queue length does an incoming req see
system.mem_ctrls.wrQLenPdf::60                 830704                       # What write queue length does an incoming req see
system.mem_ctrls.wrQLenPdf::61                 830536                       # What write queue length does an incoming req see
system.mem_ctrls.wrQLenPdf::62                 830285                       # What write queue length does an incoming req see
system.mem_ctrls.wrQLenPdf::63                 830224                       # What write queue length does an incoming req see
system.mem_ctrls.wrQLenPdf::64                 830214                       # What write queue length does an incoming req see
system.mem_ctrls.wrQLenPdf::65                      0                       # What write queue length does an incoming req see
system.mem_ctrls.wrQLenPdf::66                      0                       # What write queue length does an incoming req see
system.mem_ctrls.wrQLenPdf::67                      0                       # What write queue length does an incoming req see
system.mem_ctrls.wrQLenPdf::68                      0                       # What write queue length does an incoming req see
system.mem_ctrls.wrQLenPdf::69                      0                       # What write queue length does an incoming req see
system.mem_ctrls.wrQLenPdf::70                      0                       # What write queue length does an incoming req see
system.mem_ctrls.wrQLenPdf::71                      0                       # What write queue length does an incoming req see
system.mem_ctrls.wrQLenPdf::72                      0                       # What write queue length does an incoming req see
system.mem_ctrls.wrQLenPdf::73                      0                       # What write queue length does an incoming req see
system.mem_ctrls.wrQLenPdf::74                      0                       # What write queue length does an incoming req see
system.mem_ctrls.wrQLenPdf::75                      0                       # What write queue length does an incoming req see
system.mem_ctrls.wrQLenPdf::76                      0                       # What write queue length does an incoming req see
system.mem_ctrls.wrQLenPdf::77                      0                       # What write queue length does an incoming req see
system.mem_ctrls.wrQLenPdf::78                      0                       # What write queue length does an incoming req see
system.mem_ctrls.wrQLenPdf::79                      0                       # What write queue length does an incoming req see
system.mem_ctrls.wrQLenPdf::80                      0                       # What write queue length does an incoming req see
system.mem_ctrls.wrQLenPdf::81                      0                       # What write queue length does an incoming req see
system.mem_ctrls.wrQLenPdf::82                      0                       # What write queue length does an incoming req see
system.mem_ctrls.wrQLenPdf::83                      0                       # What write queue length does an incoming req see
system.mem_ctrls.wrQLenPdf::84                      0                       # What write queue length does an incoming req see
system.mem_ctrls.wrQLenPdf::85                      0                       # What write queue length does an incoming req see
system.mem_ctrls.wrQLenPdf::86                      0                       # What write queue length does an incoming req see
system.mem_ctrls.wrQLenPdf::87                      0                       # What write queue length does an incoming req see
system.mem_ctrls.wrQLenPdf::88                      0                       # What write queue length does an incoming req see
system.mem_ctrls.wrQLenPdf::89                      0                       # What write queue length does an incoming req see
system.mem_ctrls.wrQLenPdf::90                      0                       # What write queue length does an incoming req see
system.mem_ctrls.wrQLenPdf::91                      0                       # What write queue length does an incoming req see
system.mem_ctrls.wrQLenPdf::92                      0                       # What write queue length does an incoming req see
system.mem_ctrls.wrQLenPdf::93                      0                       # What write queue length does an incoming req see
system.mem_ctrls.wrQLenPdf::94                      0                       # What write queue length does an incoming req see
system.mem_ctrls.wrQLenPdf::95                      0                       # What write queue length does an incoming req see
system.mem_ctrls.wrQLenPdf::96                      0                       # What write queue length does an incoming req see
system.mem_ctrls.wrQLenPdf::97                      0                       # What write queue length does an incoming req see
system.mem_ctrls.wrQLenPdf::98                      0                       # What write queue length does an incoming req see
system.mem_ctrls.wrQLenPdf::99                      0                       # What write queue length does an incoming req see
system.mem_ctrls.wrQLenPdf::100                     0                       # What write queue length does an incoming req see
system.mem_ctrls.wrQLenPdf::101                     0                       # What write queue length does an incoming req see
system.mem_ctrls.wrQLenPdf::102                     0                       # What write queue length does an incoming req see
system.mem_ctrls.wrQLenPdf::103                     0                       # What write queue length does an incoming req see
system.mem_ctrls.wrQLenPdf::104                     0                       # What write queue length does an incoming req see
system.mem_ctrls.wrQLenPdf::105                     0                       # What write queue length does an incoming req see
system.mem_ctrls.wrQLenPdf::106                     0                       # What write queue length does an incoming req see
system.mem_ctrls.wrQLenPdf::107                     0                       # What write queue length does an incoming req see
system.mem_ctrls.wrQLenPdf::108                     0                       # What write queue length does an incoming req see
system.mem_ctrls.wrQLenPdf::109                     0                       # What write queue length does an incoming req see
system.mem_ctrls.wrQLenPdf::110                     0                       # What write queue length does an incoming req see
system.mem_ctrls.wrQLenPdf::111                     0                       # What write queue length does an incoming req see
system.mem_ctrls.wrQLenPdf::112                     0                       # What write queue length does an incoming req see
system.mem_ctrls.wrQLenPdf::113                     0                       # What write queue length does an incoming req see
system.mem_ctrls.wrQLenPdf::114                     0                       # What write queue length does an incoming req see
system.mem_ctrls.wrQLenPdf::115                     0                       # What write queue length does an incoming req see
system.mem_ctrls.wrQLenPdf::116                     0                       # What write queue length does an incoming req see
system.mem_ctrls.wrQLenPdf::117                     0                       # What write queue length does an incoming req see
system.mem_ctrls.wrQLenPdf::118                     0                       # What write queue length does an incoming req see
system.mem_ctrls.wrQLenPdf::119                     0                       # What write queue length does an incoming req see
system.mem_ctrls.wrQLenPdf::120                     0                       # What write queue length does an incoming req see
system.mem_ctrls.wrQLenPdf::121                     0                       # What write queue length does an incoming req see
system.mem_ctrls.wrQLenPdf::122                     0                       # What write queue length does an incoming req see
system.mem_ctrls.wrQLenPdf::123                     0                       # What write queue length does an incoming req see
system.mem_ctrls.wrQLenPdf::124                     0                       # What write queue length does an incoming req see
system.mem_ctrls.wrQLenPdf::125                     0                       # What write queue length does an incoming req see
system.mem_ctrls.wrQLenPdf::126                     0                       # What write queue length does an incoming req see
system.mem_ctrls.wrQLenPdf::127                     0                       # What write queue length does an incoming req see
system.mem_ctrls.bytesPerActivate::samples    287867652                       # Bytes accessed per row activation
system.mem_ctrls.bytesPerActivate::mean    777.227270                       # Bytes accessed per row activation
system.mem_ctrls.bytesPerActivate::gmean   633.207533                       # Bytes accessed per row activation
system.mem_ctrls.bytesPerActivate::stdev   342.129375                       # Bytes accessed per row activation
system.mem_ctrls.bytesPerActivate::0-127     18955006      6.58%      6.58% # Bytes accessed per row activation
system.mem_ctrls.bytesPerActivate::128-255     10007647      3.48%     10.06% # Bytes accessed per row activation
system.mem_ctrls.bytesPerActivate::256-383     24354662      8.46%     18.52% # Bytes accessed per row activation
system.mem_ctrls.bytesPerActivate::384-511     20175464      7.01%     25.53% # Bytes accessed per row activation
system.mem_ctrls.bytesPerActivate::512-639     13247046      4.60%     30.13% # Bytes accessed per row activation
system.mem_ctrls.bytesPerActivate::640-767      8722544      3.03%     33.16% # Bytes accessed per row activation
system.mem_ctrls.bytesPerActivate::768-895     14109052      4.90%     38.06% # Bytes accessed per row activation
system.mem_ctrls.bytesPerActivate::896-1023      7324700      2.54%     40.61% # Bytes accessed per row activation
system.mem_ctrls.bytesPerActivate::1024-1151    170971531     59.39%    100.00% # Bytes accessed per row activation
system.mem_ctrls.bytesPerActivate::total    287867652                       # Bytes accessed per row activation
system.mem_ctrls.rdPerTurnAround::samples       830196                       # Reads before turning the bus around for writes
system.mem_ctrls.rdPerTurnAround::mean    4194.897304                       # Reads before turning the bus around for writes
system.mem_ctrls.rdPerTurnAround::gmean    831.546157                       # Reads before turning the bus around for writes
system.mem_ctrls.rdPerTurnAround::stdev  25535.478887                       # Reads before turning the bus around for writes
system.mem_ctrls.rdPerTurnAround::0-16383       814055     98.06%     98.06% # Reads before turning the bus around for writes
system.mem_ctrls.rdPerTurnAround::16384-32767         7796      0.94%     98.99% # Reads before turning the bus around for writes
system.mem_ctrls.rdPerTurnAround::32768-49151         2355      0.28%     99.28% # Reads before turning the bus around for writes
system.mem_ctrls.rdPerTurnAround::49152-65535          606      0.07%     99.35% # Reads before turning the bus around for writes
system.mem_ctrls.rdPerTurnAround::65536-81919          120      0.01%     99.37% # Reads before turning the bus around for writes
system.mem_ctrls.rdPerTurnAround::81920-98303         1295      0.16%     99.52% # Reads before turning the bus around for writes
system.mem_ctrls.rdPerTurnAround::98304-114687          456      0.05%     99.58% # Reads before turning the bus around for writes
system.mem_ctrls.rdPerTurnAround::114688-131071          360      0.04%     99.62% # Reads before turning the bus around for writes
system.mem_ctrls.rdPerTurnAround::131072-147455          239      0.03%     99.65% # Reads before turning the bus around for writes
system.mem_ctrls.rdPerTurnAround::147456-163839          481      0.06%     99.71% # Reads before turning the bus around for writes
system.mem_ctrls.rdPerTurnAround::163840-180223           87      0.01%     99.72% # Reads before turning the bus around for writes
system.mem_ctrls.rdPerTurnAround::180224-196607            2      0.00%     99.72% # Reads before turning the bus around for writes
system.mem_ctrls.rdPerTurnAround::196608-212991           21      0.00%     99.72% # Reads before turning the bus around for writes
system.mem_ctrls.rdPerTurnAround::212992-229375            6      0.00%     99.72% # Reads before turning the bus around for writes
system.mem_ctrls.rdPerTurnAround::229376-245759            7      0.00%     99.72% # Reads before turning the bus around for writes
system.mem_ctrls.rdPerTurnAround::245760-262143            5      0.00%     99.72% # Reads before turning the bus around for writes
system.mem_ctrls.rdPerTurnAround::262144-278527           19      0.00%     99.72% # Reads before turning the bus around for writes
system.mem_ctrls.rdPerTurnAround::278528-294911          482      0.06%     99.78% # Reads before turning the bus around for writes
system.mem_ctrls.rdPerTurnAround::294912-311295          263      0.03%     99.81% # Reads before turning the bus around for writes
system.mem_ctrls.rdPerTurnAround::327680-344063            1      0.00%     99.81% # Reads before turning the bus around for writes
system.mem_ctrls.rdPerTurnAround::344064-360447            1      0.00%     99.81% # Reads before turning the bus around for writes
system.mem_ctrls.rdPerTurnAround::360448-376831            3      0.00%     99.81% # Reads before turning the bus around for writes
system.mem_ctrls.rdPerTurnAround::376832-393215           45      0.01%     99.82% # Reads before turning the bus around for writes
system.mem_ctrls.rdPerTurnAround::393216-409599            5      0.00%     99.82% # Reads before turning the bus around for writes
system.mem_ctrls.rdPerTurnAround::409600-425983            7      0.00%     99.82% # Reads before turning the bus around for writes
system.mem_ctrls.rdPerTurnAround::425984-442367          127      0.02%     99.84% # Reads before turning the bus around for writes
system.mem_ctrls.rdPerTurnAround::442368-458751            7      0.00%     99.84% # Reads before turning the bus around for writes
system.mem_ctrls.rdPerTurnAround::458752-475135          382      0.05%     99.88% # Reads before turning the bus around for writes
system.mem_ctrls.rdPerTurnAround::475136-491519          201      0.02%     99.91% # Reads before turning the bus around for writes
system.mem_ctrls.rdPerTurnAround::507904-524287            1      0.00%     99.91% # Reads before turning the bus around for writes
system.mem_ctrls.rdPerTurnAround::524288-540671           16      0.00%     99.91% # Reads before turning the bus around for writes
system.mem_ctrls.rdPerTurnAround::557056-573439          585      0.07%     99.98% # Reads before turning the bus around for writes
system.mem_ctrls.rdPerTurnAround::606208-622591          160      0.02%    100.00% # Reads before turning the bus around for writes
system.mem_ctrls.rdPerTurnAround::total        830196                       # Reads before turning the bus around for writes
system.mem_ctrls.wrPerTurnAround::samples       830196                       # Writes before turning the bus around for reads
system.mem_ctrls.wrPerTurnAround::mean      16.054429                       # Writes before turning the bus around for reads
system.mem_ctrls.wrPerTurnAround::gmean     16.052879                       # Writes before turning the bus around for reads
system.mem_ctrls.wrPerTurnAround::stdev      0.227203                       # Writes before turning the bus around for reads
system.mem_ctrls.wrPerTurnAround::16           785072     94.56%     94.56% # Writes before turning the bus around for reads
system.mem_ctrls.wrPerTurnAround::17            45062      5.43%     99.99% # Writes before turning the bus around for reads
system.mem_ctrls.wrPerTurnAround::18               61      0.01%    100.00% # Writes before turning the bus around for reads
system.mem_ctrls.wrPerTurnAround::19                1      0.00%    100.00% # Writes before turning the bus around for reads
system.mem_ctrls.wrPerTurnAround::total        830196                       # Writes before turning the bus around for reads
system.mem_ctrls.masterReadBytes::.cpu.inst  12523206672                       # Per-master bytes read from memory
system.mem_ctrls.masterReadBytes::.cpu.data   3006073262                       # Per-master bytes read from memory
system.mem_ctrls.masterWriteBytes::.cpu.data    171108343                       # Per-master bytes write to memory
system.mem_ctrls.masterReadRate::.cpu.inst 63878653.833976186812                       # Per-master bytes read from memory rate (Bytes/sec)
system.mem_ctrls.masterReadRate::.cpu.data 15333446.004065884277                       # Per-master bytes read from memory rate (Bytes/sec)
system.mem_ctrls.masterWriteRate::.cpu.data 872793.278660846059                       # Per-master bytes write to memory rate (Bytes/sec)
system.mem_ctrls.masterReadAccesses::.cpu.inst   3130801668                       # Per-master read serviced memory accesses
system.mem_ctrls.masterReadAccesses::.cpu.data    413399280                       # Per-master read serviced memory accesses
system.mem_ctrls.masterWriteAccesses::.cpu.data    297352287                       # Per-master write serviced memory accesses
system.mem_ctrls.masterReadTotalLat::.cpu.inst 85281756206904                       # Per-master read total memory access latency
system.mem_ctrls.masterReadTotalLat::.cpu.data 11911814982135                       # Per-master read total memory access latency
system.mem_ctrls.masterWriteTotalLat::.cpu.data 11266770050768944                       # Per-master write total memory access latency
system.mem_ctrls.masterReadAvgLat::.cpu.inst     27239.59                       # Per-master read average memory access latency
system.mem_ctrls.masterReadAvgLat::.cpu.data     28814.31                       # Per-master read average memory access latency
system.mem_ctrls.masterWriteAvgLat::.cpu.data  37890309.05                       # Per-master write average memory access latency
system.mem_ctrls.totQLat                 36276156831207                       # Total ticks spent queuing
system.mem_ctrls.totMemAccLat            97193571189039                       # Total ticks spent from burst creation until serviced by the DRAM
system.mem_ctrls.totBusLat               11603980370472                       # Total ticks spent in databus transfers
system.mem_ctrls.avgQLat                     10416.44                       # Average queueing delay per DRAM burst
system.mem_ctrls.avgBusLat                    3332.00                       # Average bus latency per DRAM burst
system.mem_ctrls.avgMemAccLat                27908.44                       # Average memory access latency per DRAM burst
system.mem_ctrls.avgRdBW                      1136.90                       # Average DRAM read bandwidth in MiByte/s
system.mem_ctrls.avgWrBW                         4.35                       # Average achieved write bandwidth in MiByte/s
system.mem_ctrls.avgRdBWSys                     80.48                       # Average system read bandwidth in MiByte/s
system.mem_ctrls.avgWrBWSys                      9.72                       # Average system write bandwidth in MiByte/s
system.mem_ctrls.peakBW                      19207.00                       # Theoretical peak bandwidth in MiByte/s
system.mem_ctrls.busUtil                         5.94                       # Data bus utilization in percentage
system.mem_ctrls.busUtilRead                     5.92                       # Data bus utilization in percentage for reads
system.mem_ctrls.busUtilWrite                    0.02                       # Data bus utilization in percentage for writes
system.mem_ctrls.avgRdQLen                       1.00                       # Average read queue length when enqueuing
system.mem_ctrls.avgWrQLen                      57.86                       # Average write queue length when enqueuing
system.mem_ctrls.readRowHits               3195954957                       # Number of row buffer hits during reads
system.mem_ctrls.writeRowHits                12092857                       # Number of row buffer hits during writes
system.mem_ctrls.readRowHitRate                 91.77                       # Row buffer hit rate for reads
system.mem_ctrls.writeRowHitRate                90.73                       # Row buffer hit rate for writes
system.mem_ctrls.avgGap                      51033.22                       # Average gap between requests
system.mem_ctrls.pageHitRate                    91.77                       # Row buffer hit rate, read and write combined
system.mem_ctrls_0.actEnergy             894561182031.056030                       # Energy for activate commands per rank (pJ)
system.mem_ctrls_0.preEnergy             603892815466.988281                       # Energy for precharge commands per rank (pJ)
system.mem_ctrls_0.readEnergy            6501427809026.480469                       # Energy for read commands per rank (pJ)
system.mem_ctrls_0.writeEnergy           9817496749.902901                       # Energy for write commands per rank (pJ)
system.mem_ctrls_0.refreshEnergy         8904239677632.541016                       # Energy for refresh commands per rank (pJ)
system.mem_ctrls_0.actBackEnergy         15679165852171.833984                       # Energy for active background per rank (pJ)
system.mem_ctrls_0.preBackEnergy         335425672365.836243                       # Energy for precharge background per rank (pJ)
system.mem_ctrls_0.actPowerDownEnergy    21590171630142                       # Energy for active power-down per rank (pJ)
system.mem_ctrls_0.prePowerDownEnergy    1026476215763.774170                       # Energy for precharge power-down per rank (pJ)
system.mem_ctrls_0.selfRefreshEnergy     2109219627768.699951                       # Energy for self refresh per rank (pJ)
system.mem_ctrls_0.totalEnergy           57657050678199.500000                       # Total energy per rank (pJ)
system.mem_ctrls_0.averagePower            294.098379                       # Core power per rank (mW)
system.mem_ctrls_0.totalIdleTime         132638427523865                       # Total Idle time Per DRAM Rank
system.mem_ctrls_0.memoryStateTime::IDLE 484327670560                       # Time in different power states
system.mem_ctrls_0.memoryStateTime::REF  8164869400700                       # Time in different power states
system.mem_ctrls_0.memoryStateTime::SREF 14378304377503                       # Time in different power states
system.mem_ctrls_0.memoryStateTime::PRE_PDN 8553968003764                       # Time in different power states
system.mem_ctrls_0.memoryStateTime::ACT  54759191052375                       # Time in different power states
system.mem_ctrls_0.memoryStateTime::ACT_PDN 109706155142598                       # Time in different power states
system.mem_ctrls_1.actEnergy             214087833059.640167                       # Energy for activate commands per rank (pJ)
system.mem_ctrls_1.preEnergy             144524604479.044617                       # Energy for precharge commands per rank (pJ)
system.mem_ctrls_1.readEnergy            1084101847395.155640                       # Energy for read commands per rank (pJ)
system.mem_ctrls_1.writeEnergy           8945854230.414648                       # Energy for write commands per rank (pJ)
system.mem_ctrls_1.refreshEnergy         5336054090156.349609                       # Energy for refresh commands per rank (pJ)
system.mem_ctrls_1.actBackEnergy         3641310304538.510742                       # Energy for active background per rank (pJ)
system.mem_ctrls_1.preBackEnergy         125249174009.420090                       # Energy for precharge background per rank (pJ)
system.mem_ctrls_1.actPowerDownEnergy    17258369841365.167969                       # Energy for active power-down per rank (pJ)
system.mem_ctrls_1.prePowerDownEnergy    750759924426.399170                       # Energy for precharge power-down per rank (pJ)
system.mem_ctrls_1.selfRefreshEnergy     12669245942715.671875                       # Energy for self refresh per rank (pJ)
system.mem_ctrls_1.totalEnergy           41236605843596.312500                       # Total energy per rank (pJ)
system.mem_ctrls_1.averagePower            210.340605                       # Core power per rank (mW)
system.mem_ctrls_1.totalIdleTime         181017495079302                       # Total Idle time Per DRAM Rank
system.mem_ctrls_1.memoryStateTime::IDLE 245306499500                       # Time in different power states
system.mem_ctrls_1.memoryStateTime::REF  4892970950000                       # Time in different power states
system.mem_ctrls_1.memoryStateTime::SREF 87066189058530                       # Time in different power states
system.mem_ctrls_1.memoryStateTime::PRE_PDN 6256333197995                       # Time in different power states
system.mem_ctrls_1.memoryStateTime::ACT  9891043118698                       # Time in different power states
system.mem_ctrls_1.memoryStateTime::ACT_PDN 87694972822777                       # Time in different power states
system.mem_ctrls_2.actEnergy             240948370642.634796                       # Energy for activate commands per rank (pJ)
system.mem_ctrls_2.preEnergy             162657389636.057343                       # Energy for precharge commands per rank (pJ)
system.mem_ctrls_2.readEnergy            1659835035335.971924                       # Energy for read commands per rank (pJ)
system.mem_ctrls_2.writeEnergy           8950010219.359739                       # Energy for write commands per rank (pJ)
system.mem_ctrls_2.refreshEnergy         5238575864765.227539                       # Energy for refresh commands per rank (pJ)
system.mem_ctrls_2.actBackEnergy         4635634552465.238281                       # Energy for active background per rank (pJ)
system.mem_ctrls_2.preBackEnergy         183166900152.615906                       # Energy for precharge background per rank (pJ)
system.mem_ctrls_2.actPowerDownEnergy    15489666829663.992188                       # Energy for active power-down per rank (pJ)
system.mem_ctrls_2.prePowerDownEnergy    1078668235941.257935                       # Energy for precharge power-down per rank (pJ)
system.mem_ctrls_2.selfRefreshEnergy     12940445670716.371094                       # Energy for self refresh per rank (pJ)
system.mem_ctrls_2.totalEnergy           41643086266370.671875                       # Total energy per rank (pJ)
system.mem_ctrls_2.averagePower            212.413990                       # Core power per rank (mW)
system.mem_ctrls_2.totalIdleTime         176770123897640                       # Total Idle time Per DRAM Rank
system.mem_ctrls_2.memoryStateTime::IDLE 355860636730                       # Time in different power states
system.mem_ctrls_2.memoryStateTime::REF  4803586900000                       # Time in different power states
system.mem_ctrls_2.memoryStateTime::SREF 89073564156776                       # Time in different power states
system.mem_ctrls_2.memoryStateTime::PRE_PDN 8988902003676                       # Time in different power states
system.mem_ctrls_2.memoryStateTime::ACT  14117242866622                       # Time in different power states
system.mem_ctrls_2.memoryStateTime::ACT_PDN 78707659083696                       # Time in different power states
system.mem_ctrls_3.actEnergy             225272090534.096893                       # Energy for activate commands per rank (pJ)
system.mem_ctrls_3.preEnergy             152074778707.995361                       # Energy for precharge commands per rank (pJ)
system.mem_ctrls_3.readEnergy            1323540625452.306152                       # Energy for read commands per rank (pJ)
system.mem_ctrls_3.writeEnergy           9537723511.976620                       # Energy for write commands per rank (pJ)
system.mem_ctrls_3.refreshEnergy         5540285329780.368164                       # Energy for refresh commands per rank (pJ)
system.mem_ctrls_3.actBackEnergy         4144080071336.857422                       # Energy for active background per rank (pJ)
system.mem_ctrls_3.preBackEnergy         135343173827.934418                       # Energy for precharge background per rank (pJ)
system.mem_ctrls_3.actPowerDownEnergy    15618625727522.234375                       # Energy for active power-down per rank (pJ)
system.mem_ctrls_3.prePowerDownEnergy    2002407127151.367676                       # Energy for precharge power-down per rank (pJ)
system.mem_ctrls_3.selfRefreshEnergy     12039098466688.523438                       # Energy for self refresh per rank (pJ)
system.mem_ctrls_3.totalEnergy           41194539146127.156250                       # Total energy per rank (pJ)
system.mem_ctrls_3.averagePower            210.126030                       # Core power per rank (mW)
system.mem_ctrls_3.totalIdleTime         178987350273118                       # Total Idle time Per DRAM Rank
system.mem_ctrls_3.memoryStateTime::IDLE 240866226630                       # Time in different power states
system.mem_ctrls_3.memoryStateTime::REF  5080243700000                       # Time in different power states
system.mem_ctrls_3.memoryStateTime::SREF 82937687164438                       # Time in different power states
system.mem_ctrls_3.memoryStateTime::PRE_PDN 16686726442211                       # Time in different power states
system.mem_ctrls_3.memoryStateTime::ACT  11738355220757                       # Time in different power states
system.mem_ctrls_3.memoryStateTime::ACT_PDN 79362936893464                       # Time in different power states
system.pwrStateResidencyTicks::UNDEFINED 196046815647500                       # Cumulative time (in ticks) in various power states
system.cpu_voltage_domain.voltage                   1                       # Voltage in Volts
system.cpu_clk_domain.clock                       500                       # Clock period in ticks
system.cpu.dstage2_mmu.stage2_tlb.walker.pwrStateResidencyTicks::UNDEFINED 196046815647500                       # Cumulative time (in ticks) in various power states
system.cpu.dstage2_mmu.stage2_tlb.walker.walks            0                       # Table walker walks requested
system.cpu.dstage2_mmu.stage2_tlb.walker.walkRequestOrigin_Requested::Data            0                       # Table walker requests started/completed, data/inst
system.cpu.dstage2_mmu.stage2_tlb.walker.walkRequestOrigin_Requested::Inst            0                       # Table walker requests started/completed, data/inst
system.cpu.dstage2_mmu.stage2_tlb.walker.walkRequestOrigin_Requested::total            0                       # Table walker requests started/completed, data/inst
system.cpu.dstage2_mmu.stage2_tlb.walker.walkRequestOrigin_Completed::Data            0                       # Table walker requests started/completed, data/inst
system.cpu.dstage2_mmu.stage2_tlb.walker.walkRequestOrigin_Completed::Inst            0                       # Table walker requests started/completed, data/inst
system.cpu.dstage2_mmu.stage2_tlb.walker.walkRequestOrigin_Completed::total            0                       # Table walker requests started/completed, data/inst
system.cpu.dstage2_mmu.stage2_tlb.walker.walkRequestOrigin::total            0                       # Table walker requests started/completed, data/inst
system.cpu.dstage2_mmu.stage2_tlb.inst_hits            0                       # ITB inst hits
system.cpu.dstage2_mmu.stage2_tlb.inst_misses            0                       # ITB inst misses
system.cpu.dstage2_mmu.stage2_tlb.read_hits            0                       # DTB read hits
system.cpu.dstage2_mmu.stage2_tlb.read_misses            0                       # DTB read misses
system.cpu.dstage2_mmu.stage2_tlb.write_hits            0                       # DTB write hits
system.cpu.dstage2_mmu.stage2_tlb.write_misses            0                       # DTB write misses
system.cpu.dstage2_mmu.stage2_tlb.flush_tlb            0                       # Number of times complete TLB was flushed
system.cpu.dstage2_mmu.stage2_tlb.flush_tlb_mva            0                       # Number of times TLB was flushed by MVA
system.cpu.dstage2_mmu.stage2_tlb.flush_tlb_mva_asid            0                       # Number of times TLB was flushed by MVA & ASID
system.cpu.dstage2_mmu.stage2_tlb.flush_tlb_asid            0                       # Number of times TLB was flushed by ASID
system.cpu.dstage2_mmu.stage2_tlb.flush_entries            0                       # Number of entries that have been flushed from TLB
system.cpu.dstage2_mmu.stage2_tlb.align_faults            0                       # Number of TLB faults due to alignment restrictions
system.cpu.dstage2_mmu.stage2_tlb.prefetch_faults            0                       # Number of TLB faults due to prefetch
system.cpu.dstage2_mmu.stage2_tlb.domain_faults            0                       # Number of TLB faults due to domain restrictions
system.cpu.dstage2_mmu.stage2_tlb.perms_faults            0                       # Number of TLB faults due to permissions restrictions
system.cpu.dstage2_mmu.stage2_tlb.read_accesses            0                       # DTB read accesses
system.cpu.dstage2_mmu.stage2_tlb.write_accesses            0                       # DTB write accesses
system.cpu.dstage2_mmu.stage2_tlb.inst_accesses            0                       # ITB inst accesses
system.cpu.dstage2_mmu.stage2_tlb.hits              0                       # DTB hits
system.cpu.dstage2_mmu.stage2_tlb.misses            0                       # DTB misses
system.cpu.dstage2_mmu.stage2_tlb.accesses            0                       # DTB accesses
system.cpu.dtb.walker.pwrStateResidencyTicks::UNDEFINED 196046815647500                       # Cumulative time (in ticks) in various power states
system.cpu.dtb.walker.walks                         0                       # Table walker walks requested
system.cpu.dtb.walker.walkRequestOrigin_Requested::Data            0                       # Table walker requests started/completed, data/inst
system.cpu.dtb.walker.walkRequestOrigin_Requested::Inst            0                       # Table walker requests started/completed, data/inst
system.cpu.dtb.walker.walkRequestOrigin_Requested::total            0                       # Table walker requests started/completed, data/inst
system.cpu.dtb.walker.walkRequestOrigin_Completed::Data            0                       # Table walker requests started/completed, data/inst
system.cpu.dtb.walker.walkRequestOrigin_Completed::Inst            0                       # Table walker requests started/completed, data/inst
system.cpu.dtb.walker.walkRequestOrigin_Completed::total            0                       # Table walker requests started/completed, data/inst
system.cpu.dtb.walker.walkRequestOrigin::total            0                       # Table walker requests started/completed, data/inst
system.cpu.dtb.inst_hits                            0                       # ITB inst hits
system.cpu.dtb.inst_misses                          0                       # ITB inst misses
system.cpu.dtb.read_hits                            0                       # DTB read hits
system.cpu.dtb.read_misses                          0                       # DTB read misses
system.cpu.dtb.write_hits                           0                       # DTB write hits
system.cpu.dtb.write_misses                         0                       # DTB write misses
system.cpu.dtb.flush_tlb                            0                       # Number of times complete TLB was flushed
system.cpu.dtb.flush_tlb_mva                        0                       # Number of times TLB was flushed by MVA
system.cpu.dtb.flush_tlb_mva_asid                   0                       # Number of times TLB was flushed by MVA & ASID
system.cpu.dtb.flush_tlb_asid                       0                       # Number of times TLB was flushed by ASID
system.cpu.dtb.flush_entries                        0                       # Number of entries that have been flushed from TLB
system.cpu.dtb.align_faults                         0                       # Number of TLB faults due to alignment restrictions
system.cpu.dtb.prefetch_faults                      0                       # Number of TLB faults due to prefetch
system.cpu.dtb.domain_faults                        0                       # Number of TLB faults due to domain restrictions
system.cpu.dtb.perms_faults                         0                       # Number of TLB faults due to permissions restrictions
system.cpu.dtb.read_accesses                        0                       # DTB read accesses
system.cpu.dtb.write_accesses                       0                       # DTB write accesses
system.cpu.dtb.inst_accesses                        0                       # ITB inst accesses
system.cpu.dtb.hits                                 0                       # DTB hits
system.cpu.dtb.misses                               0                       # DTB misses
system.cpu.dtb.accesses                             0                       # DTB accesses
system.cpu.istage2_mmu.stage2_tlb.walker.pwrStateResidencyTicks::UNDEFINED 196046815647500                       # Cumulative time (in ticks) in various power states
system.cpu.istage2_mmu.stage2_tlb.walker.walks            0                       # Table walker walks requested
system.cpu.istage2_mmu.stage2_tlb.walker.walkRequestOrigin_Requested::Data            0                       # Table walker requests started/completed, data/inst
system.cpu.istage2_mmu.stage2_tlb.walker.walkRequestOrigin_Requested::Inst            0                       # Table walker requests started/completed, data/inst
system.cpu.istage2_mmu.stage2_tlb.walker.walkRequestOrigin_Requested::total            0                       # Table walker requests started/completed, data/inst
system.cpu.istage2_mmu.stage2_tlb.walker.walkRequestOrigin_Completed::Data            0                       # Table walker requests started/completed, data/inst
system.cpu.istage2_mmu.stage2_tlb.walker.walkRequestOrigin_Completed::Inst            0                       # Table walker requests started/completed, data/inst
system.cpu.istage2_mmu.stage2_tlb.walker.walkRequestOrigin_Completed::total            0                       # Table walker requests started/completed, data/inst
system.cpu.istage2_mmu.stage2_tlb.walker.walkRequestOrigin::total            0                       # Table walker requests started/completed, data/inst
system.cpu.istage2_mmu.stage2_tlb.inst_hits            0                       # ITB inst hits
system.cpu.istage2_mmu.stage2_tlb.inst_misses            0                       # ITB inst misses
system.cpu.istage2_mmu.stage2_tlb.read_hits            0                       # DTB read hits
system.cpu.istage2_mmu.stage2_tlb.read_misses            0                       # DTB read misses
system.cpu.istage2_mmu.stage2_tlb.write_hits            0                       # DTB write hits
system.cpu.istage2_mmu.stage2_tlb.write_misses            0                       # DTB write misses
system.cpu.istage2_mmu.stage2_tlb.flush_tlb            0                       # Number of times complete TLB was flushed
system.cpu.istage2_mmu.stage2_tlb.flush_tlb_mva            0                       # Number of times TLB was flushed by MVA
system.cpu.istage2_mmu.stage2_tlb.flush_tlb_mva_asid            0                       # Number of times TLB was flushed by MVA & ASID
system.cpu.istage2_mmu.stage2_tlb.flush_tlb_asid            0                       # Number of times TLB was flushed by ASID
system.cpu.istage2_mmu.stage2_tlb.flush_entries            0                       # Number of entries that have been flushed from TLB
system.cpu.istage2_mmu.stage2_tlb.align_faults            0                       # Number of TLB faults due to alignment restrictions
system.cpu.istage2_mmu.stage2_tlb.prefetch_faults            0                       # Number of TLB faults due to prefetch
system.cpu.istage2_mmu.stage2_tlb.domain_faults            0                       # Number of TLB faults due to domain restrictions
system.cpu.istage2_mmu.stage2_tlb.perms_faults            0                       # Number of TLB faults due to permissions restrictions
system.cpu.istage2_mmu.stage2_tlb.read_accesses            0                       # DTB read accesses
system.cpu.istage2_mmu.stage2_tlb.write_accesses            0                       # DTB write accesses
system.cpu.istage2_mmu.stage2_tlb.inst_accesses            0                       # ITB inst accesses
system.cpu.istage2_mmu.stage2_tlb.hits              0                       # DTB hits
system.cpu.istage2_mmu.stage2_tlb.misses            0                       # DTB misses
system.cpu.istage2_mmu.stage2_tlb.accesses            0                       # DTB accesses
system.cpu.itb.walker.pwrStateResidencyTicks::UNDEFINED 196046815647500                       # Cumulative time (in ticks) in various power states
system.cpu.itb.walker.walks                         0                       # Table walker walks requested
system.cpu.itb.walker.walkRequestOrigin_Requested::Data            0                       # Table walker requests started/completed, data/inst
system.cpu.itb.walker.walkRequestOrigin_Requested::Inst            0                       # Table walker requests started/completed, data/inst
system.cpu.itb.walker.walkRequestOrigin_Requested::total            0                       # Table walker requests started/completed, data/inst
system.cpu.itb.walker.walkRequestOrigin_Completed::Data            0                       # Table walker requests started/completed, data/inst
system.cpu.itb.walker.walkRequestOrigin_Completed::Inst            0                       # Table walker requests started/completed, data/inst
system.cpu.itb.walker.walkRequestOrigin_Completed::total            0                       # Table walker requests started/completed, data/inst
system.cpu.itb.walker.walkRequestOrigin::total            0                       # Table walker requests started/completed, data/inst
system.cpu.itb.inst_hits                            0                       # ITB inst hits
system.cpu.itb.inst_misses                          0                       # ITB inst misses
system.cpu.itb.read_hits                            0                       # DTB read hits
system.cpu.itb.read_misses                          0                       # DTB read misses
system.cpu.itb.write_hits                           0                       # DTB write hits
system.cpu.itb.write_misses                         0                       # DTB write misses
system.cpu.itb.flush_tlb                            0                       # Number of times complete TLB was flushed
system.cpu.itb.flush_tlb_mva                        0                       # Number of times TLB was flushed by MVA
system.cpu.itb.flush_tlb_mva_asid                   0                       # Number of times TLB was flushed by MVA & ASID
system.cpu.itb.flush_tlb_asid                       0                       # Number of times TLB was flushed by ASID
system.cpu.itb.flush_entries                        0                       # Number of entries that have been flushed from TLB
system.cpu.itb.align_faults                         0                       # Number of TLB faults due to alignment restrictions
system.cpu.itb.prefetch_faults                      0                       # Number of TLB faults due to prefetch
system.cpu.itb.domain_faults                        0                       # Number of TLB faults due to domain restrictions
system.cpu.itb.perms_faults                         0                       # Number of TLB faults due to permissions restrictions
system.cpu.itb.read_accesses                        0                       # DTB read accesses
system.cpu.itb.write_accesses                       0                       # DTB write accesses
system.cpu.itb.inst_accesses                        0                       # ITB inst accesses
system.cpu.itb.hits                                 0                       # DTB hits
system.cpu.itb.misses                               0                       # DTB misses
system.cpu.itb.accesses                             0                       # DTB accesses
system.cpu.workload.numSyscalls                   307                       # Number of system calls
system.cpu.pwrStateResidencyTicks::ON    196046815647500                       # Cumulative time (in ticks) in various power states
system.cpu.numCycles                     392093631295                       # number of cpu cycles simulated
system.cpu.numWorkItemsStarted                      0                       # number of work items this cpu started
system.cpu.numWorkItemsCompleted                    0                       # number of work items this cpu completed
system.cpu.committedInsts                  3130801356                       # Number of instructions committed
system.cpu.committedOps                    3351333164                       # Number of ops (including micro ops) committed
system.cpu.num_int_alu_accesses            2690174238                       # Number of integer alu accesses
system.cpu.num_cus_alu_accesses            2690174238                       # Number of custom alu accesses
system.cpu.num_fp_alu_accesses                      0                       # Number of float alu accesses
system.cpu.num_vec_alu_accesses             582553324                       # Number of vector alu accesses
system.cpu.num_func_calls                   155417664                       # number of times a function call or return occured
system.cpu.num_conditional_control_insts    376993291                       # number of instructions that are conditional controls
system.cpu.num_int_insts                   2690174238                       # number of integer instructions
system.cpu.num_fp_insts                             0                       # number of float instructions
system.cpu.num_vec_insts                    582553324                       # number of vector instructions
system.cpu.num_int_register_reads          5207307915                       # number of times the integer registers were read
system.cpu.num_int_register_writes         2410905628                       # number of times the integer registers were written
system.cpu.num_fp_register_reads                    0                       # number of times the floating registers were read
system.cpu.num_fp_register_writes                   0                       # number of times the floating registers were written
system.cpu.num_vec_register_reads           584792326                       # number of times the vector registers were read
system.cpu.num_vec_register_writes          416254402                       # number of times the vector registers were written
system.cpu.num_cc_register_reads           1420677933                       # number of times the CC registers were read
system.cpu.num_cc_register_writes          1440314823                       # number of times the CC registers were written
system.cpu.num_mem_refs                     709690609                       # number of memory refs
system.cpu.num_load_insts                   412470153                       # Number of load instructions
system.cpu.num_store_insts                  297220456                       # Number of store instructions
system.cpu.num_idle_cycles                          0                       # Number of idle cycles
system.cpu.num_busy_cycles               392093631295                       # Number of busy cycles
system.cpu.not_idle_fraction                        1                       # Percentage of non-idle cycles
system.cpu.idle_fraction                            0                       # Percentage of idle cycles
system.cpu.Branches                         547270453                       # Number of branches fetched
system.cpu.op_class::No_OpClass                 61184      0.00%      0.00% # Class of executed instruction
system.cpu.op_class::IntAlu                2247717409     67.07%     67.07% # Class of executed instruction
system.cpu.op_class::IntMult                   715654      0.02%     67.09% # Class of executed instruction
system.cpu.op_class::IntDiv                     98841      0.00%     67.10% # Class of executed instruction
system.cpu.op_class::FloatAdd                26290018      0.78%     67.88% # Class of executed instruction
system.cpu.op_class::FloatCmp                45933003      1.37%     69.25% # Class of executed instruction
system.cpu.op_class::FloatCvt                73643563      2.20%     71.45% # Class of executed instruction
system.cpu.op_class::FloatMult               42121784      1.26%     72.70% # Class of executed instruction
system.cpu.op_class::FloatMultAcc             9034496      0.27%     72.97% # Class of executed instruction
system.cpu.op_class::FloatDiv                 8689884      0.26%     73.23% # Class of executed instruction
system.cpu.op_class::FloatMisc               33505380      1.00%     74.23% # Class of executed instruction
system.cpu.op_class::FloatSqrt                8652845      0.26%     74.49% # Class of executed instruction
system.cpu.op_class::SimdAdd                   478853      0.01%     74.51% # Class of executed instruction
system.cpu.op_class::SimdAddAcc                     0      0.00%     74.51% # Class of executed instruction
system.cpu.op_class::SimdAlu                  2731677      0.08%     74.59% # Class of executed instruction
system.cpu.op_class::SimdCmp                     1380      0.00%     74.59% # Class of executed instruction
system.cpu.op_class::SimdCvt                     6342      0.00%     74.59% # Class of executed instruction
system.cpu.op_class::SimdMisc                32569555      0.97%     75.56% # Class of executed instruction
system.cpu.op_class::SimdMult                       0      0.00%     75.56% # Class of executed instruction
system.cpu.op_class::SimdMultAcc                    0      0.00%     75.56% # Class of executed instruction
system.cpu.op_class::SimdShift                  50088      0.00%     75.56% # Class of executed instruction
system.cpu.op_class::SimdShiftAcc                   0      0.00%     75.56% # Class of executed instruction
system.cpu.op_class::SimdSqrt                       0      0.00%     75.56% # Class of executed instruction
system.cpu.op_class::SimdFloatAdd             1496087      0.04%     75.61% # Class of executed instruction
system.cpu.op_class::SimdFloatAlu             2162304      0.06%     75.67% # Class of executed instruction
system.cpu.op_class::SimdFloatCmp             2649030      0.08%     75.75% # Class of executed instruction
system.cpu.op_class::SimdFloatCvt                   0      0.00%     75.75% # Class of executed instruction
system.cpu.op_class::SimdFloatDiv                6336      0.00%     75.75% # Class of executed instruction
system.cpu.op_class::SimdFloatMisc                  0      0.00%     75.75% # Class of executed instruction
system.cpu.op_class::SimdFloatMult             129801      0.00%     75.75% # Class of executed instruction
system.cpu.op_class::SimdFloatMultAcc        21734088      0.65%     76.40% # Class of executed instruction
system.cpu.op_class::SimdFloatSqrt                  0      0.00%     76.40% # Class of executed instruction
system.cpu.op_class::SimdAes                        0      0.00%     76.40% # Class of executed instruction
system.cpu.op_class::SimdAesMix                     0      0.00%     76.40% # Class of executed instruction
system.cpu.op_class::SimdSha1Hash                   0      0.00%     76.40% # Class of executed instruction
system.cpu.op_class::SimdSha1Hash2                  0      0.00%     76.40% # Class of executed instruction
system.cpu.op_class::SimdSha256Hash                 0      0.00%     76.40% # Class of executed instruction
system.cpu.op_class::SimdSha256Hash2                0      0.00%     76.40% # Class of executed instruction
system.cpu.op_class::SimdShaSigma2                  0      0.00%     76.40% # Class of executed instruction
system.cpu.op_class::SimdShaSigma3                  0      0.00%     76.40% # Class of executed instruction
system.cpu.op_class::MemRead                412470153     12.31%     88.71% # Class of executed instruction
system.cpu.op_class::MemWrite               297220456      8.87%     97.58% # Class of executed instruction
system.cpu.op_class::FloatMemRead                   0      0.00%     97.58% # Class of executed instruction
system.cpu.op_class::FloatMemWrite                  0      0.00%     97.58% # Class of executed instruction
system.cpu.op_class::IprAccess                      0      0.00%     97.58% # Class of executed instruction
system.cpu.op_class::InstPrefetch                   0      0.00%     97.58% # Class of executed instruction
system.cpu.op_class::CusAlu                  81163264      2.42%    100.00% # Class of executed instruction
system.cpu.op_class::total                 3351333475                       # Class of executed instruction
system.membus.snoop_filter.tot_requests             0                       # Total number of requests made to the snoop filter.
system.membus.snoop_filter.hit_single_requests            0                       # Number of requests hitting in the snoop filter with a single holder of the requested data.
system.membus.snoop_filter.hit_multi_requests            0                       # Number of requests hitting in the snoop filter with multiple (>1) holders of the requested data.
system.membus.snoop_filter.tot_snoops               0                       # Total number of snoops made to the snoop filter.
system.membus.snoop_filter.hit_single_snoops            0                       # Number of snoops hitting in the snoop filter with a single holder of the requested data.
system.membus.snoop_filter.hit_multi_snoops            0                       # Number of snoops hitting in the snoop filter with multiple (>1) holders of the requested data.
system.membus.pwrStateResidencyTicks::UNDEFINED 196046815647500                       # Cumulative time (in ticks) in various power states
system.membus.trans_dist::ReadReq          3526830926                       # Transaction distribution
system.membus.trans_dist::ReadResp         3544200448                       # Transaction distribution
system.membus.trans_dist::WriteReq          279982764                       # Transaction distribution
system.membus.trans_dist::WriteResp         279982764                       # Transaction distribution
system.membus.trans_dist::SoftPFReq               499                       # Transaction distribution
system.membus.trans_dist::SoftPFResp              499                       # Transaction distribution
system.membus.trans_dist::LoadLockedReq      17369523                       # Transaction distribution
system.membus.trans_dist::StoreCondReq       17369523                       # Transaction distribution
system.membus.trans_dist::StoreCondResp      17369523                       # Transaction distribution
system.membus.pkt_count_system.cpu.icache_port::system.mem_ctrls.port   6261603335                       # Packet count per connected master and slave (bytes)
system.membus.pkt_count_system.cpu.dcache_port::system.mem_ctrls.port   1421503134                       # Packet count per connected master and slave (bytes)
system.membus.pkt_count::total             7683106469                       # Packet count per connected master and slave (bytes)
system.membus.pkt_size_system.cpu.icache_port::system.mem_ctrls.port  12523206668                       # Cumulative packet size per connected master and slave (bytes)
system.membus.pkt_size_system.cpu.dcache_port::system.mem_ctrls.port   5158896195                       # Cumulative packet size per connected master and slave (bytes)
system.membus.pkt_size::total             17682102863                       # Cumulative packet size per connected master and slave (bytes)
system.membus.snoops                                0                       # Total snoops (count)
system.membus.snoopTraffic                          0                       # Total snoop traffic (bytes)
system.membus.snoop_fanout::samples        3841553235                       # Request fanout histogram
system.membus.snoop_fanout::mean                    0                       # Request fanout histogram
system.membus.snoop_fanout::stdev                   0                       # Request fanout histogram
system.membus.snoop_fanout::underflows              0      0.00%      0.00% # Request fanout histogram
system.membus.snoop_fanout::0              3841553235    100.00%    100.00% # Request fanout histogram
system.membus.snoop_fanout::1                       0      0.00%    100.00% # Request fanout histogram
system.membus.snoop_fanout::overflows               0      0.00%    100.00% # Request fanout histogram
system.membus.snoop_fanout::min_value               0                       # Request fanout histogram
system.membus.snoop_fanout::max_value               0                       # Request fanout histogram
system.membus.snoop_fanout::total          3841553235                       # Request fanout histogram
system.membus.reqLayer0.occupancy        2975016447125                       # Layer occupancy (ticks)
system.membus.reqLayer0.utilization               1.5                       # Layer utilization (%)
system.membus.respLayer1.occupancy       4742778460338                       # Layer occupancy (ticks)
system.membus.respLayer1.utilization              2.4                       # Layer utilization (%)
system.membus.respLayer2.occupancy       798088693490                       # Layer occupancy (ticks)
system.membus.respLayer2.utilization              0.4                       # Layer utilization (%)

---------- End Simulation Statistics   ----------
