
---------- Begin Simulation Statistics ----------
sim_seconds                                  2.935961                       # Number of seconds simulated
sim_ticks                                2935961007500                       # Number of ticks simulated
final_tick                               2935961007500                       # Number of ticks from beginning of simulation (restored from checkpoints and never reset)
sim_freq                                 1000000000000                       # Frequency of simulated ticks
host_inst_rate                                  25342                       # Simulator instruction rate (inst/s)
host_op_rate                                    27147                       # Simulator op (including micro ops) rate (op/s)
host_tick_rate                               24028575                       # Simulator tick rate (ticks/s)
host_mem_usage                                4415388                       # Number of bytes of host memory used
host_seconds                                122186.23                       # Real time elapsed on the host
sim_insts                                  3096449509                       # Number of instructions simulated
sim_ops                                    3316981256                       # Number of ops (including micro ops) simulated
system.voltage_domain.voltage                       1                       # Voltage in Volts
system.clk_domain.clock                           625                       # Clock period in ticks
system.mem_ctrls.pwrStateResidencyTicks::UNDEFINED 2935961007500                       # Cumulative time (in ticks) in various power states
system.mem_ctrls.bytes_read::.cpu.inst         341888                       # Number of bytes read from this memory
system.mem_ctrls.bytes_read::.cpu.data     1153265152                       # Number of bytes read from this memory
system.mem_ctrls.bytes_read::total         1153607040                       # Number of bytes read from this memory
system.mem_ctrls.bytes_inst_read::.cpu.inst       341888                       # Number of instructions bytes read from this memory
system.mem_ctrls.bytes_inst_read::total        341888                       # Number of instructions bytes read from this memory
system.mem_ctrls.bytes_written::.writebacks    665049600                       # Number of bytes written to this memory
system.mem_ctrls.bytes_written::total       665049600                       # Number of bytes written to this memory
system.mem_ctrls.num_reads::.cpu.inst            5342                       # Number of read requests responded to by this memory
system.mem_ctrls.num_reads::.cpu.data        18019768                       # Number of read requests responded to by this memory
system.mem_ctrls.num_reads::total            18025110                       # Number of read requests responded to by this memory
system.mem_ctrls.num_writes::.writebacks     10391400                       # Number of write requests responded to by this memory
system.mem_ctrls.num_writes::total           10391400                       # Number of write requests responded to by this memory
system.mem_ctrls.bw_read::.cpu.inst            116448                       # Total read bandwidth from this memory (bytes/s)
system.mem_ctrls.bw_read::.cpu.data         392806699                       # Total read bandwidth from this memory (bytes/s)
system.mem_ctrls.bw_read::total             392923147                       # Total read bandwidth from this memory (bytes/s)
system.mem_ctrls.bw_inst_read::.cpu.inst       116448                       # Instruction read bandwidth from this memory (bytes/s)
system.mem_ctrls.bw_inst_read::total           116448                       # Instruction read bandwidth from this memory (bytes/s)
system.mem_ctrls.bw_write::.writebacks      226518540                       # Write bandwidth from this memory (bytes/s)
system.mem_ctrls.bw_write::total            226518540                       # Write bandwidth from this memory (bytes/s)
system.mem_ctrls.bw_total::.writebacks      226518540                       # Total bandwidth to/from this memory (bytes/s)
system.mem_ctrls.bw_total::.cpu.inst           116448                       # Total bandwidth to/from this memory (bytes/s)
system.mem_ctrls.bw_total::.cpu.data        392806699                       # Total bandwidth to/from this memory (bytes/s)
system.mem_ctrls.bw_total::total            619441687                       # Total bandwidth to/from this memory (bytes/s)
system.mem_ctrls.avgPriority_.writebacks::samples  10391385.00                       # Average QoS priority value for accepted requests
system.mem_ctrls.avgPriority_.cpu.inst::samples      5344.00                       # Average QoS priority value for accepted requests
system.mem_ctrls.avgPriority_.cpu.data::samples  18002691.00                       # Average QoS priority value for accepted requests
system.mem_ctrls.priorityMinLatency      0.000000017492                       # per QoS priority minimum request to response latency (s)
system.mem_ctrls.priorityMaxLatency      0.087295167652                       # per QoS priority maximum request to response latency (s)
system.mem_ctrls.numReadWriteTurnArounds       578500                       # Number of turnarounds from READ to WRITE
system.mem_ctrls.numWriteReadTurnArounds       578500                       # Number of turnarounds from WRITE to READ
system.mem_ctrls.numStayReadState            45555832                       # Number of times bus staying in READ state
system.mem_ctrls.numStayWriteState            9894563                       # Number of times bus staying in WRITE state
system.mem_ctrls.readReqs                    18025112                       # Number of read requests accepted
system.mem_ctrls.writeReqs                   10391400                       # Number of write requests accepted
system.mem_ctrls.readBursts                  18025112                       # Number of DRAM read bursts, including those serviced by the write queue
system.mem_ctrls.writeBursts                 10391400                       # Number of DRAM write bursts, including those merged in the write queue
system.mem_ctrls.bytesReadDRAM             1152514240                       # Total number of bytes read from DRAM
system.mem_ctrls.bytesReadWrQ                 1092928                       # Total number of bytes read from write queue
system.mem_ctrls.bytesWritten               665045056                       # Total number of bytes written to DRAM
system.mem_ctrls.bytesReadSys              1153607168                       # Total read bytes from the system interface side
system.mem_ctrls.bytesWrittenSys            665049600                       # Total written bytes from the system interface side
system.mem_ctrls.servicedByWrQ                  17077                       # Number of DRAM read bursts serviced by the write queue
system.mem_ctrls.mergedWrBursts                    15                       # Number of DRAM write bursts merged with an existing one
system.mem_ctrls.neitherReadNorWriteReqs            0                       # Number of requests that are neither read nor write
system.mem_ctrls.perBankRdBursts::0            573709                       # Per bank write bursts
system.mem_ctrls.perBankRdBursts::1            573437                       # Per bank write bursts
system.mem_ctrls.perBankRdBursts::2            574529                       # Per bank write bursts
system.mem_ctrls.perBankRdBursts::3            571373                       # Per bank write bursts
system.mem_ctrls.perBankRdBursts::4            570431                       # Per bank write bursts
system.mem_ctrls.perBankRdBursts::5            567765                       # Per bank write bursts
system.mem_ctrls.perBankRdBursts::6            555913                       # Per bank write bursts
system.mem_ctrls.perBankRdBursts::7            556140                       # Per bank write bursts
system.mem_ctrls.perBankRdBursts::8            555210                       # Per bank write bursts
system.mem_ctrls.perBankRdBursts::9            556711                       # Per bank write bursts
system.mem_ctrls.perBankRdBursts::10           556681                       # Per bank write bursts
system.mem_ctrls.perBankRdBursts::11           557532                       # Per bank write bursts
system.mem_ctrls.perBankRdBursts::12           556622                       # Per bank write bursts
system.mem_ctrls.perBankRdBursts::13           555005                       # Per bank write bursts
system.mem_ctrls.perBankRdBursts::14           555090                       # Per bank write bursts
system.mem_ctrls.perBankRdBursts::15           554257                       # Per bank write bursts
system.mem_ctrls.perBankRdBursts::16           555398                       # Per bank write bursts
system.mem_ctrls.perBankRdBursts::17           555390                       # Per bank write bursts
system.mem_ctrls.perBankRdBursts::18           556215                       # Per bank write bursts
system.mem_ctrls.perBankRdBursts::19           556867                       # Per bank write bursts
system.mem_ctrls.perBankRdBursts::20           558892                       # Per bank write bursts
system.mem_ctrls.perBankRdBursts::21           564817                       # Per bank write bursts
system.mem_ctrls.perBankRdBursts::22           564593                       # Per bank write bursts
system.mem_ctrls.perBankRdBursts::23           565332                       # Per bank write bursts
system.mem_ctrls.perBankRdBursts::24           563381                       # Per bank write bursts
system.mem_ctrls.perBankRdBursts::25           564815                       # Per bank write bursts
system.mem_ctrls.perBankRdBursts::26           564559                       # Per bank write bursts
system.mem_ctrls.perBankRdBursts::27           567737                       # Per bank write bursts
system.mem_ctrls.perBankRdBursts::28           568368                       # Per bank write bursts
system.mem_ctrls.perBankRdBursts::29           570115                       # Per bank write bursts
system.mem_ctrls.perBankRdBursts::30           569859                       # Per bank write bursts
system.mem_ctrls.perBankRdBursts::31           571292                       # Per bank write bursts
system.mem_ctrls.perBankWrBursts::0            326054                       # Per bank write bursts
system.mem_ctrls.perBankWrBursts::1            326588                       # Per bank write bursts
system.mem_ctrls.perBankWrBursts::2            326905                       # Per bank write bursts
system.mem_ctrls.perBankWrBursts::3            324884                       # Per bank write bursts
system.mem_ctrls.perBankWrBursts::4            325184                       # Per bank write bursts
system.mem_ctrls.perBankWrBursts::5            324316                       # Per bank write bursts
system.mem_ctrls.perBankWrBursts::6            322075                       # Per bank write bursts
system.mem_ctrls.perBankWrBursts::7            321642                       # Per bank write bursts
system.mem_ctrls.perBankWrBursts::8            321679                       # Per bank write bursts
system.mem_ctrls.perBankWrBursts::9            322287                       # Per bank write bursts
system.mem_ctrls.perBankWrBursts::10           322384                       # Per bank write bursts
system.mem_ctrls.perBankWrBursts::11           322248                       # Per bank write bursts
system.mem_ctrls.perBankWrBursts::12           322133                       # Per bank write bursts
system.mem_ctrls.perBankWrBursts::13           321052                       # Per bank write bursts
system.mem_ctrls.perBankWrBursts::14           320894                       # Per bank write bursts
system.mem_ctrls.perBankWrBursts::15           320968                       # Per bank write bursts
system.mem_ctrls.perBankWrBursts::16           320906                       # Per bank write bursts
system.mem_ctrls.perBankWrBursts::17           320865                       # Per bank write bursts
system.mem_ctrls.perBankWrBursts::18           321873                       # Per bank write bursts
system.mem_ctrls.perBankWrBursts::19           322411                       # Per bank write bursts
system.mem_ctrls.perBankWrBursts::20           322742                       # Per bank write bursts
system.mem_ctrls.perBankWrBursts::21           328571                       # Per bank write bursts
system.mem_ctrls.perBankWrBursts::22           328448                       # Per bank write bursts
system.mem_ctrls.perBankWrBursts::23           328609                       # Per bank write bursts
system.mem_ctrls.perBankWrBursts::24           328314                       # Per bank write bursts
system.mem_ctrls.perBankWrBursts::25           328740                       # Per bank write bursts
system.mem_ctrls.perBankWrBursts::26           329134                       # Per bank write bursts
system.mem_ctrls.perBankWrBursts::27           331248                       # Per bank write bursts
system.mem_ctrls.perBankWrBursts::28           330778                       # Per bank write bursts
system.mem_ctrls.perBankWrBursts::29           326394                       # Per bank write bursts
system.mem_ctrls.perBankWrBursts::30           325332                       # Per bank write bursts
system.mem_ctrls.perBankWrBursts::31           325671                       # Per bank write bursts
system.mem_ctrls.numRdRetry                         0                       # Number of times read queue was full causing retry
system.mem_ctrls.numWrRetry                       157                       # Number of times write queue was full causing retry
system.mem_ctrls.totGap                  2935960995000                       # Total gap between requests
system.mem_ctrls.readPktSize::0                     0                       # Read request sizes (log2)
system.mem_ctrls.readPktSize::1                     0                       # Read request sizes (log2)
system.mem_ctrls.readPktSize::2                     0                       # Read request sizes (log2)
system.mem_ctrls.readPktSize::3                     0                       # Read request sizes (log2)
system.mem_ctrls.readPktSize::4                     0                       # Read request sizes (log2)
system.mem_ctrls.readPktSize::5                     0                       # Read request sizes (log2)
system.mem_ctrls.readPktSize::6              18025112                       # Read request sizes (log2)
system.mem_ctrls.writePktSize::0                    0                       # Write request sizes (log2)
system.mem_ctrls.writePktSize::1                    0                       # Write request sizes (log2)
system.mem_ctrls.writePktSize::2                    0                       # Write request sizes (log2)
system.mem_ctrls.writePktSize::3                    0                       # Write request sizes (log2)
system.mem_ctrls.writePktSize::4                    0                       # Write request sizes (log2)
system.mem_ctrls.writePktSize::5                    0                       # Write request sizes (log2)
system.mem_ctrls.writePktSize::6             10391400                       # Write request sizes (log2)
system.mem_ctrls.rdQLenPdf::0                14639685                       # What read queue length does an incoming req see
system.mem_ctrls.rdQLenPdf::1                 3362826                       # What read queue length does an incoming req see
system.mem_ctrls.rdQLenPdf::2                    4117                       # What read queue length does an incoming req see
system.mem_ctrls.rdQLenPdf::3                    1394                       # What read queue length does an incoming req see
system.mem_ctrls.rdQLenPdf::4                      12                       # What read queue length does an incoming req see
system.mem_ctrls.rdQLenPdf::5                       1                       # What read queue length does an incoming req see
system.mem_ctrls.rdQLenPdf::6                       0                       # What read queue length does an incoming req see
system.mem_ctrls.rdQLenPdf::7                       0                       # What read queue length does an incoming req see
system.mem_ctrls.rdQLenPdf::8                       0                       # What read queue length does an incoming req see
system.mem_ctrls.rdQLenPdf::9                       0                       # What read queue length does an incoming req see
system.mem_ctrls.rdQLenPdf::10                      0                       # What read queue length does an incoming req see
system.mem_ctrls.rdQLenPdf::11                      0                       # What read queue length does an incoming req see
system.mem_ctrls.rdQLenPdf::12                      0                       # What read queue length does an incoming req see
system.mem_ctrls.rdQLenPdf::13                      0                       # What read queue length does an incoming req see
system.mem_ctrls.rdQLenPdf::14                      0                       # What read queue length does an incoming req see
system.mem_ctrls.rdQLenPdf::15                      0                       # What read queue length does an incoming req see
system.mem_ctrls.rdQLenPdf::16                      0                       # What read queue length does an incoming req see
system.mem_ctrls.rdQLenPdf::17                      0                       # What read queue length does an incoming req see
system.mem_ctrls.rdQLenPdf::18                      0                       # What read queue length does an incoming req see
system.mem_ctrls.rdQLenPdf::19                      0                       # What read queue length does an incoming req see
system.mem_ctrls.rdQLenPdf::20                      0                       # What read queue length does an incoming req see
system.mem_ctrls.rdQLenPdf::21                      0                       # What read queue length does an incoming req see
system.mem_ctrls.rdQLenPdf::22                      0                       # What read queue length does an incoming req see
system.mem_ctrls.rdQLenPdf::23                      0                       # What read queue length does an incoming req see
system.mem_ctrls.rdQLenPdf::24                      0                       # What read queue length does an incoming req see
system.mem_ctrls.rdQLenPdf::25                      0                       # What read queue length does an incoming req see
system.mem_ctrls.rdQLenPdf::26                      0                       # What read queue length does an incoming req see
system.mem_ctrls.rdQLenPdf::27                      0                       # What read queue length does an incoming req see
system.mem_ctrls.rdQLenPdf::28                      0                       # What read queue length does an incoming req see
system.mem_ctrls.rdQLenPdf::29                      0                       # What read queue length does an incoming req see
system.mem_ctrls.rdQLenPdf::30                      0                       # What read queue length does an incoming req see
system.mem_ctrls.rdQLenPdf::31                      0                       # What read queue length does an incoming req see
system.mem_ctrls.rdQLenPdf::32                      0                       # What read queue length does an incoming req see
system.mem_ctrls.rdQLenPdf::33                      0                       # What read queue length does an incoming req see
system.mem_ctrls.rdQLenPdf::34                      0                       # What read queue length does an incoming req see
system.mem_ctrls.rdQLenPdf::35                      0                       # What read queue length does an incoming req see
system.mem_ctrls.rdQLenPdf::36                      0                       # What read queue length does an incoming req see
system.mem_ctrls.rdQLenPdf::37                      0                       # What read queue length does an incoming req see
system.mem_ctrls.rdQLenPdf::38                      0                       # What read queue length does an incoming req see
system.mem_ctrls.rdQLenPdf::39                      0                       # What read queue length does an incoming req see
system.mem_ctrls.rdQLenPdf::40                      0                       # What read queue length does an incoming req see
system.mem_ctrls.rdQLenPdf::41                      0                       # What read queue length does an incoming req see
system.mem_ctrls.rdQLenPdf::42                      0                       # What read queue length does an incoming req see
system.mem_ctrls.rdQLenPdf::43                      0                       # What read queue length does an incoming req see
system.mem_ctrls.rdQLenPdf::44                      0                       # What read queue length does an incoming req see
system.mem_ctrls.rdQLenPdf::45                      0                       # What read queue length does an incoming req see
system.mem_ctrls.rdQLenPdf::46                      0                       # What read queue length does an incoming req see
system.mem_ctrls.rdQLenPdf::47                      0                       # What read queue length does an incoming req see
system.mem_ctrls.rdQLenPdf::48                      0                       # What read queue length does an incoming req see
system.mem_ctrls.rdQLenPdf::49                      0                       # What read queue length does an incoming req see
system.mem_ctrls.rdQLenPdf::50                      0                       # What read queue length does an incoming req see
system.mem_ctrls.rdQLenPdf::51                      0                       # What read queue length does an incoming req see
system.mem_ctrls.rdQLenPdf::52                      0                       # What read queue length does an incoming req see
system.mem_ctrls.rdQLenPdf::53                      0                       # What read queue length does an incoming req see
system.mem_ctrls.rdQLenPdf::54                      0                       # What read queue length does an incoming req see
system.mem_ctrls.rdQLenPdf::55                      0                       # What read queue length does an incoming req see
system.mem_ctrls.rdQLenPdf::56                      0                       # What read queue length does an incoming req see
system.mem_ctrls.rdQLenPdf::57                      0                       # What read queue length does an incoming req see
system.mem_ctrls.rdQLenPdf::58                      0                       # What read queue length does an incoming req see
system.mem_ctrls.rdQLenPdf::59                      0                       # What read queue length does an incoming req see
system.mem_ctrls.rdQLenPdf::60                      0                       # What read queue length does an incoming req see
system.mem_ctrls.rdQLenPdf::61                      0                       # What read queue length does an incoming req see
system.mem_ctrls.rdQLenPdf::62                      0                       # What read queue length does an incoming req see
system.mem_ctrls.rdQLenPdf::63                      0                       # What read queue length does an incoming req see
system.mem_ctrls.wrQLenPdf::0                       1                       # What write queue length does an incoming req see
system.mem_ctrls.wrQLenPdf::1                       1                       # What write queue length does an incoming req see
system.mem_ctrls.wrQLenPdf::2                       1                       # What write queue length does an incoming req see
system.mem_ctrls.wrQLenPdf::3                       1                       # What write queue length does an incoming req see
system.mem_ctrls.wrQLenPdf::4                       1                       # What write queue length does an incoming req see
system.mem_ctrls.wrQLenPdf::5                       1                       # What write queue length does an incoming req see
system.mem_ctrls.wrQLenPdf::6                       1                       # What write queue length does an incoming req see
system.mem_ctrls.wrQLenPdf::7                       1                       # What write queue length does an incoming req see
system.mem_ctrls.wrQLenPdf::8                       1                       # What write queue length does an incoming req see
system.mem_ctrls.wrQLenPdf::9                       1                       # What write queue length does an incoming req see
system.mem_ctrls.wrQLenPdf::10                      1                       # What write queue length does an incoming req see
system.mem_ctrls.wrQLenPdf::11                      1                       # What write queue length does an incoming req see
system.mem_ctrls.wrQLenPdf::12                      1                       # What write queue length does an incoming req see
system.mem_ctrls.wrQLenPdf::13                      1                       # What write queue length does an incoming req see
system.mem_ctrls.wrQLenPdf::14                      1                       # What write queue length does an incoming req see
system.mem_ctrls.wrQLenPdf::15                      1                       # What write queue length does an incoming req see
system.mem_ctrls.wrQLenPdf::16                      1                       # What write queue length does an incoming req see
system.mem_ctrls.wrQLenPdf::17                      1                       # What write queue length does an incoming req see
system.mem_ctrls.wrQLenPdf::18                      1                       # What write queue length does an incoming req see
system.mem_ctrls.wrQLenPdf::19                      1                       # What write queue length does an incoming req see
system.mem_ctrls.wrQLenPdf::20                      1                       # What write queue length does an incoming req see
system.mem_ctrls.wrQLenPdf::21                      1                       # What write queue length does an incoming req see
system.mem_ctrls.wrQLenPdf::22                      1                       # What write queue length does an incoming req see
system.mem_ctrls.wrQLenPdf::23                      1                       # What write queue length does an incoming req see
system.mem_ctrls.wrQLenPdf::24                      1                       # What write queue length does an incoming req see
system.mem_ctrls.wrQLenPdf::25                      1                       # What write queue length does an incoming req see
system.mem_ctrls.wrQLenPdf::26                      1                       # What write queue length does an incoming req see
system.mem_ctrls.wrQLenPdf::27                      1                       # What write queue length does an incoming req see
system.mem_ctrls.wrQLenPdf::28                      1                       # What write queue length does an incoming req see
system.mem_ctrls.wrQLenPdf::29                      1                       # What write queue length does an incoming req see
system.mem_ctrls.wrQLenPdf::30                      1                       # What write queue length does an incoming req see
system.mem_ctrls.wrQLenPdf::31                      1                       # What write queue length does an incoming req see
system.mem_ctrls.wrQLenPdf::32                      1                       # What write queue length does an incoming req see
system.mem_ctrls.wrQLenPdf::33                      1                       # What write queue length does an incoming req see
system.mem_ctrls.wrQLenPdf::34                      1                       # What write queue length does an incoming req see
system.mem_ctrls.wrQLenPdf::35                      1                       # What write queue length does an incoming req see
system.mem_ctrls.wrQLenPdf::36                      1                       # What write queue length does an incoming req see
system.mem_ctrls.wrQLenPdf::37                      1                       # What write queue length does an incoming req see
system.mem_ctrls.wrQLenPdf::38                      1                       # What write queue length does an incoming req see
system.mem_ctrls.wrQLenPdf::39                      1                       # What write queue length does an incoming req see
system.mem_ctrls.wrQLenPdf::40                      1                       # What write queue length does an incoming req see
system.mem_ctrls.wrQLenPdf::41                      1                       # What write queue length does an incoming req see
system.mem_ctrls.wrQLenPdf::42                      1                       # What write queue length does an incoming req see
system.mem_ctrls.wrQLenPdf::43                      1                       # What write queue length does an incoming req see
system.mem_ctrls.wrQLenPdf::44                      1                       # What write queue length does an incoming req see
system.mem_ctrls.wrQLenPdf::45                      1                       # What write queue length does an incoming req see
system.mem_ctrls.wrQLenPdf::46                      1                       # What write queue length does an incoming req see
system.mem_ctrls.wrQLenPdf::47                 178590                       # What write queue length does an incoming req see
system.mem_ctrls.wrQLenPdf::48                 209973                       # What write queue length does an incoming req see
system.mem_ctrls.wrQLenPdf::49                 618196                       # What write queue length does an incoming req see
system.mem_ctrls.wrQLenPdf::50                 626196                       # What write queue length does an incoming req see
system.mem_ctrls.wrQLenPdf::51                 629975                       # What write queue length does an incoming req see
system.mem_ctrls.wrQLenPdf::52                 611517                       # What write queue length does an incoming req see
system.mem_ctrls.wrQLenPdf::53                 615969                       # What write queue length does an incoming req see
system.mem_ctrls.wrQLenPdf::54                 628837                       # What write queue length does an incoming req see
system.mem_ctrls.wrQLenPdf::55                 640886                       # What write queue length does an incoming req see
system.mem_ctrls.wrQLenPdf::56                 614382                       # What write queue length does an incoming req see
system.mem_ctrls.wrQLenPdf::57                 605375                       # What write queue length does an incoming req see
system.mem_ctrls.wrQLenPdf::58                 601641                       # What write queue length does an incoming req see
system.mem_ctrls.wrQLenPdf::59                 602422                       # What write queue length does an incoming req see
system.mem_ctrls.wrQLenPdf::60                 596842                       # What write queue length does an incoming req see
system.mem_ctrls.wrQLenPdf::61                 588838                       # What write queue length does an incoming req see
system.mem_ctrls.wrQLenPdf::62                 593782                       # What write queue length does an incoming req see
system.mem_ctrls.wrQLenPdf::63                 599848                       # What write queue length does an incoming req see
system.mem_ctrls.wrQLenPdf::64                 600907                       # What write queue length does an incoming req see
system.mem_ctrls.wrQLenPdf::65                  15898                       # What write queue length does an incoming req see
system.mem_ctrls.wrQLenPdf::66                   9339                       # What write queue length does an incoming req see
system.mem_ctrls.wrQLenPdf::67                  12272                       # What write queue length does an incoming req see
system.mem_ctrls.wrQLenPdf::68                   6810                       # What write queue length does an incoming req see
system.mem_ctrls.wrQLenPdf::69                   4622                       # What write queue length does an incoming req see
system.mem_ctrls.wrQLenPdf::70                   3971                       # What write queue length does an incoming req see
system.mem_ctrls.wrQLenPdf::71                   3225                       # What write queue length does an incoming req see
system.mem_ctrls.wrQLenPdf::72                   2146                       # What write queue length does an incoming req see
system.mem_ctrls.wrQLenPdf::73                   1880                       # What write queue length does an incoming req see
system.mem_ctrls.wrQLenPdf::74                   3235                       # What write queue length does an incoming req see
system.mem_ctrls.wrQLenPdf::75                   3739                       # What write queue length does an incoming req see
system.mem_ctrls.wrQLenPdf::76                   4109                       # What write queue length does an incoming req see
system.mem_ctrls.wrQLenPdf::77                   3399                       # What write queue length does an incoming req see
system.mem_ctrls.wrQLenPdf::78                   2827                       # What write queue length does an incoming req see
system.mem_ctrls.wrQLenPdf::79                   6019                       # What write queue length does an incoming req see
system.mem_ctrls.wrQLenPdf::80                   5897                       # What write queue length does an incoming req see
system.mem_ctrls.wrQLenPdf::81                   2451                       # What write queue length does an incoming req see
system.mem_ctrls.wrQLenPdf::82                   1839                       # What write queue length does an incoming req see
system.mem_ctrls.wrQLenPdf::83                   2879                       # What write queue length does an incoming req see
system.mem_ctrls.wrQLenPdf::84                   3478                       # What write queue length does an incoming req see
system.mem_ctrls.wrQLenPdf::85                   3415                       # What write queue length does an incoming req see
system.mem_ctrls.wrQLenPdf::86                   2694                       # What write queue length does an incoming req see
system.mem_ctrls.wrQLenPdf::87                   2541                       # What write queue length does an incoming req see
system.mem_ctrls.wrQLenPdf::88                   2491                       # What write queue length does an incoming req see
system.mem_ctrls.wrQLenPdf::89                   6189                       # What write queue length does an incoming req see
system.mem_ctrls.wrQLenPdf::90                   4958                       # What write queue length does an incoming req see
system.mem_ctrls.wrQLenPdf::91                   4722                       # What write queue length does an incoming req see
system.mem_ctrls.wrQLenPdf::92                   4113                       # What write queue length does an incoming req see
system.mem_ctrls.wrQLenPdf::93                   2193                       # What write queue length does an incoming req see
system.mem_ctrls.wrQLenPdf::94                   2280                       # What write queue length does an incoming req see
system.mem_ctrls.wrQLenPdf::95                   3375                       # What write queue length does an incoming req see
system.mem_ctrls.wrQLenPdf::96                   4917                       # What write queue length does an incoming req see
system.mem_ctrls.wrQLenPdf::97                   3657                       # What write queue length does an incoming req see
system.mem_ctrls.wrQLenPdf::98                   2809                       # What write queue length does an incoming req see
system.mem_ctrls.wrQLenPdf::99                   6391                       # What write queue length does an incoming req see
system.mem_ctrls.wrQLenPdf::100                  5420                       # What write queue length does an incoming req see
system.mem_ctrls.wrQLenPdf::101                  5996                       # What write queue length does an incoming req see
system.mem_ctrls.wrQLenPdf::102                  3297                       # What write queue length does an incoming req see
system.mem_ctrls.wrQLenPdf::103                  3916                       # What write queue length does an incoming req see
system.mem_ctrls.wrQLenPdf::104                  2701                       # What write queue length does an incoming req see
system.mem_ctrls.wrQLenPdf::105                  3698                       # What write queue length does an incoming req see
system.mem_ctrls.wrQLenPdf::106                  2956                       # What write queue length does an incoming req see
system.mem_ctrls.wrQLenPdf::107                  3450                       # What write queue length does an incoming req see
system.mem_ctrls.wrQLenPdf::108                  3496                       # What write queue length does an incoming req see
system.mem_ctrls.wrQLenPdf::109                  3435                       # What write queue length does an incoming req see
system.mem_ctrls.wrQLenPdf::110                  3803                       # What write queue length does an incoming req see
system.mem_ctrls.wrQLenPdf::111                  3464                       # What write queue length does an incoming req see
system.mem_ctrls.wrQLenPdf::112                  2257                       # What write queue length does an incoming req see
system.mem_ctrls.wrQLenPdf::113                  3143                       # What write queue length does an incoming req see
system.mem_ctrls.wrQLenPdf::114                  1939                       # What write queue length does an incoming req see
system.mem_ctrls.wrQLenPdf::115                  3543                       # What write queue length does an incoming req see
system.mem_ctrls.wrQLenPdf::116                  1692                       # What write queue length does an incoming req see
system.mem_ctrls.wrQLenPdf::117                  2948                       # What write queue length does an incoming req see
system.mem_ctrls.wrQLenPdf::118                  1848                       # What write queue length does an incoming req see
system.mem_ctrls.wrQLenPdf::119                  2483                       # What write queue length does an incoming req see
system.mem_ctrls.wrQLenPdf::120                  2021                       # What write queue length does an incoming req see
system.mem_ctrls.wrQLenPdf::121                   815                       # What write queue length does an incoming req see
system.mem_ctrls.wrQLenPdf::122                   770                       # What write queue length does an incoming req see
system.mem_ctrls.wrQLenPdf::123                   506                       # What write queue length does an incoming req see
system.mem_ctrls.wrQLenPdf::124                   282                       # What write queue length does an incoming req see
system.mem_ctrls.wrQLenPdf::125                   114                       # What write queue length does an incoming req see
system.mem_ctrls.wrQLenPdf::126                    92                       # What write queue length does an incoming req see
system.mem_ctrls.wrQLenPdf::127                   297                       # What write queue length does an incoming req see
system.mem_ctrls.bytesPerActivate::samples      3074364                       # Bytes accessed per row activation
system.mem_ctrls.bytesPerActivate::mean    591.197701                       # Bytes accessed per row activation
system.mem_ctrls.bytesPerActivate::gmean   413.340746                       # Bytes accessed per row activation
system.mem_ctrls.bytesPerActivate::stdev   373.419291                       # Bytes accessed per row activation
system.mem_ctrls.bytesPerActivate::0-127       488245     15.88%     15.88% # Bytes accessed per row activation
system.mem_ctrls.bytesPerActivate::128-255       282238      9.18%     25.06% # Bytes accessed per row activation
system.mem_ctrls.bytesPerActivate::256-383       179415      5.84%     30.90% # Bytes accessed per row activation
system.mem_ctrls.bytesPerActivate::384-511       323287     10.52%     41.41% # Bytes accessed per row activation
system.mem_ctrls.bytesPerActivate::512-639       360116     11.71%     53.13% # Bytes accessed per row activation
system.mem_ctrls.bytesPerActivate::640-767       185704      6.04%     59.17% # Bytes accessed per row activation
system.mem_ctrls.bytesPerActivate::768-895       138909      4.52%     63.69% # Bytes accessed per row activation
system.mem_ctrls.bytesPerActivate::896-1023       102597      3.34%     67.02% # Bytes accessed per row activation
system.mem_ctrls.bytesPerActivate::1024-1151      1013853     32.98%    100.00% # Bytes accessed per row activation
system.mem_ctrls.bytesPerActivate::total      3074364                       # Bytes accessed per row activation
system.mem_ctrls.rdPerTurnAround::samples       578500                       # Reads before turning the bus around for writes
system.mem_ctrls.rdPerTurnAround::mean      31.128821                       # Reads before turning the bus around for writes
system.mem_ctrls.rdPerTurnAround::stdev    201.830451                       # Reads before turning the bus around for writes
system.mem_ctrls.rdPerTurnAround::0-255        576328     99.62%     99.62% # Reads before turning the bus around for writes
system.mem_ctrls.rdPerTurnAround::256-511         1137      0.20%     99.82% # Reads before turning the bus around for writes
system.mem_ctrls.rdPerTurnAround::512-767           93      0.02%     99.84% # Reads before turning the bus around for writes
system.mem_ctrls.rdPerTurnAround::768-1023           59      0.01%     99.85% # Reads before turning the bus around for writes
system.mem_ctrls.rdPerTurnAround::1024-1279           39      0.01%     99.85% # Reads before turning the bus around for writes
system.mem_ctrls.rdPerTurnAround::1280-1535           45      0.01%     99.86% # Reads before turning the bus around for writes
system.mem_ctrls.rdPerTurnAround::1536-1791           26      0.00%     99.87% # Reads before turning the bus around for writes
system.mem_ctrls.rdPerTurnAround::1792-2047           59      0.01%     99.88% # Reads before turning the bus around for writes
system.mem_ctrls.rdPerTurnAround::2048-2303           36      0.01%     99.88% # Reads before turning the bus around for writes
system.mem_ctrls.rdPerTurnAround::2304-2559           27      0.00%     99.89% # Reads before turning the bus around for writes
system.mem_ctrls.rdPerTurnAround::2560-2815           51      0.01%     99.90% # Reads before turning the bus around for writes
system.mem_ctrls.rdPerTurnAround::2816-3071           22      0.00%     99.90% # Reads before turning the bus around for writes
system.mem_ctrls.rdPerTurnAround::3072-3327           36      0.01%     99.91% # Reads before turning the bus around for writes
system.mem_ctrls.rdPerTurnAround::3328-3583           24      0.00%     99.91% # Reads before turning the bus around for writes
system.mem_ctrls.rdPerTurnAround::3584-3839           37      0.01%     99.92% # Reads before turning the bus around for writes
system.mem_ctrls.rdPerTurnAround::3840-4095           34      0.01%     99.92% # Reads before turning the bus around for writes
system.mem_ctrls.rdPerTurnAround::4096-4351           24      0.00%     99.93% # Reads before turning the bus around for writes
system.mem_ctrls.rdPerTurnAround::4352-4607           37      0.01%     99.93% # Reads before turning the bus around for writes
system.mem_ctrls.rdPerTurnAround::4608-4863           18      0.00%     99.94% # Reads before turning the bus around for writes
system.mem_ctrls.rdPerTurnAround::4864-5119           38      0.01%     99.94% # Reads before turning the bus around for writes
system.mem_ctrls.rdPerTurnAround::5120-5375           39      0.01%     99.95% # Reads before turning the bus around for writes
system.mem_ctrls.rdPerTurnAround::5376-5631           37      0.01%     99.96% # Reads before turning the bus around for writes
system.mem_ctrls.rdPerTurnAround::5632-5887            5      0.00%     99.96% # Reads before turning the bus around for writes
system.mem_ctrls.rdPerTurnAround::5888-6143           40      0.01%     99.96% # Reads before turning the bus around for writes
system.mem_ctrls.rdPerTurnAround::6144-6399           39      0.01%     99.97% # Reads before turning the bus around for writes
system.mem_ctrls.rdPerTurnAround::6400-6655           18      0.00%     99.97% # Reads before turning the bus around for writes
system.mem_ctrls.rdPerTurnAround::6656-6911           17      0.00%     99.98% # Reads before turning the bus around for writes
system.mem_ctrls.rdPerTurnAround::6912-7167            4      0.00%     99.98% # Reads before turning the bus around for writes
system.mem_ctrls.rdPerTurnAround::7168-7423           23      0.00%     99.98% # Reads before turning the bus around for writes
system.mem_ctrls.rdPerTurnAround::7424-7679           21      0.00%     99.98% # Reads before turning the bus around for writes
system.mem_ctrls.rdPerTurnAround::7680-7935           17      0.00%     99.99% # Reads before turning the bus around for writes
system.mem_ctrls.rdPerTurnAround::7936-8191            5      0.00%     99.99% # Reads before turning the bus around for writes
system.mem_ctrls.rdPerTurnAround::8192-8447            1      0.00%     99.99% # Reads before turning the bus around for writes
system.mem_ctrls.rdPerTurnAround::8448-8703            1      0.00%     99.99% # Reads before turning the bus around for writes
system.mem_ctrls.rdPerTurnAround::8704-8959            2      0.00%     99.99% # Reads before turning the bus around for writes
system.mem_ctrls.rdPerTurnAround::9216-9471            9      0.00%     99.99% # Reads before turning the bus around for writes
system.mem_ctrls.rdPerTurnAround::9728-9983            1      0.00%     99.99% # Reads before turning the bus around for writes
system.mem_ctrls.rdPerTurnAround::9984-10239           40      0.01%    100.00% # Reads before turning the bus around for writes
system.mem_ctrls.rdPerTurnAround::10240-10495            2      0.00%    100.00% # Reads before turning the bus around for writes
system.mem_ctrls.rdPerTurnAround::13312-13567            9      0.00%    100.00% # Reads before turning the bus around for writes
system.mem_ctrls.rdPerTurnAround::total        578500                       # Reads before turning the bus around for writes
system.mem_ctrls.wrPerTurnAround::samples       578500                       # Writes before turning the bus around for reads
system.mem_ctrls.wrPerTurnAround::mean      17.962539                       # Writes before turning the bus around for reads
system.mem_ctrls.wrPerTurnAround::gmean     17.229731                       # Writes before turning the bus around for reads
system.mem_ctrls.wrPerTurnAround::stdev     11.567516                       # Writes before turning the bus around for reads
system.mem_ctrls.wrPerTurnAround::16-23        552082     95.43%     95.43% # Writes before turning the bus around for reads
system.mem_ctrls.wrPerTurnAround::24-31          2752      0.48%     95.91% # Writes before turning the bus around for reads
system.mem_ctrls.wrPerTurnAround::32-39         16733      2.89%     98.80% # Writes before turning the bus around for reads
system.mem_ctrls.wrPerTurnAround::40-47          2056      0.36%     99.16% # Writes before turning the bus around for reads
system.mem_ctrls.wrPerTurnAround::48-55          2335      0.40%     99.56% # Writes before turning the bus around for reads
system.mem_ctrls.wrPerTurnAround::56-63            99      0.02%     99.58% # Writes before turning the bus around for reads
system.mem_ctrls.wrPerTurnAround::64-71           752      0.13%     99.71% # Writes before turning the bus around for reads
system.mem_ctrls.wrPerTurnAround::72-79           112      0.02%     99.73% # Writes before turning the bus around for reads
system.mem_ctrls.wrPerTurnAround::80-87            19      0.00%     99.73% # Writes before turning the bus around for reads
system.mem_ctrls.wrPerTurnAround::88-95           303      0.05%     99.78% # Writes before turning the bus around for reads
system.mem_ctrls.wrPerTurnAround::96-103            6      0.00%     99.78% # Writes before turning the bus around for reads
system.mem_ctrls.wrPerTurnAround::104-111           10      0.00%     99.79% # Writes before turning the bus around for reads
system.mem_ctrls.wrPerTurnAround::112-119           16      0.00%     99.79% # Writes before turning the bus around for reads
system.mem_ctrls.wrPerTurnAround::120-127            7      0.00%     99.79% # Writes before turning the bus around for reads
system.mem_ctrls.wrPerTurnAround::128-135           10      0.00%     99.79% # Writes before turning the bus around for reads
system.mem_ctrls.wrPerTurnAround::136-143           11      0.00%     99.79% # Writes before turning the bus around for reads
system.mem_ctrls.wrPerTurnAround::144-151            7      0.00%     99.79% # Writes before turning the bus around for reads
system.mem_ctrls.wrPerTurnAround::152-159           10      0.00%     99.80% # Writes before turning the bus around for reads
system.mem_ctrls.wrPerTurnAround::160-167            6      0.00%     99.80% # Writes before turning the bus around for reads
system.mem_ctrls.wrPerTurnAround::168-175            2      0.00%     99.80% # Writes before turning the bus around for reads
system.mem_ctrls.wrPerTurnAround::176-183           12      0.00%     99.80% # Writes before turning the bus around for reads
system.mem_ctrls.wrPerTurnAround::184-191           12      0.00%     99.80% # Writes before turning the bus around for reads
system.mem_ctrls.wrPerTurnAround::192-199           10      0.00%     99.80% # Writes before turning the bus around for reads
system.mem_ctrls.wrPerTurnAround::200-207            4      0.00%     99.80% # Writes before turning the bus around for reads
system.mem_ctrls.wrPerTurnAround::208-215            9      0.00%     99.81% # Writes before turning the bus around for reads
system.mem_ctrls.wrPerTurnAround::216-223           18      0.00%     99.81% # Writes before turning the bus around for reads
system.mem_ctrls.wrPerTurnAround::224-231           31      0.01%     99.81% # Writes before turning the bus around for reads
system.mem_ctrls.wrPerTurnAround::232-239           10      0.00%     99.82% # Writes before turning the bus around for reads
system.mem_ctrls.wrPerTurnAround::240-247          529      0.09%     99.91% # Writes before turning the bus around for reads
system.mem_ctrls.wrPerTurnAround::248-255           83      0.01%     99.92% # Writes before turning the bus around for reads
system.mem_ctrls.wrPerTurnAround::256-263          218      0.04%     99.96% # Writes before turning the bus around for reads
system.mem_ctrls.wrPerTurnAround::264-271          224      0.04%    100.00% # Writes before turning the bus around for reads
system.mem_ctrls.wrPerTurnAround::280-287            2      0.00%    100.00% # Writes before turning the bus around for reads
system.mem_ctrls.wrPerTurnAround::288-295            1      0.00%    100.00% # Writes before turning the bus around for reads
system.mem_ctrls.wrPerTurnAround::304-311            1      0.00%    100.00% # Writes before turning the bus around for reads
system.mem_ctrls.wrPerTurnAround::312-319            1      0.00%    100.00% # Writes before turning the bus around for reads
system.mem_ctrls.wrPerTurnAround::336-343            1      0.00%    100.00% # Writes before turning the bus around for reads
system.mem_ctrls.wrPerTurnAround::344-351            1      0.00%    100.00% # Writes before turning the bus around for reads
system.mem_ctrls.wrPerTurnAround::352-359            1      0.00%    100.00% # Writes before turning the bus around for reads
system.mem_ctrls.wrPerTurnAround::376-383            1      0.00%    100.00% # Writes before turning the bus around for reads
system.mem_ctrls.wrPerTurnAround::384-391            1      0.00%    100.00% # Writes before turning the bus around for reads
system.mem_ctrls.wrPerTurnAround::440-447            1      0.00%    100.00% # Writes before turning the bus around for reads
system.mem_ctrls.wrPerTurnAround::512-519            1      0.00%    100.00% # Writes before turning the bus around for reads
system.mem_ctrls.wrPerTurnAround::total        578500                       # Writes before turning the bus around for reads
system.mem_ctrls.masterReadBytes::.cpu.inst       342016                       # Per-master bytes read from memory
system.mem_ctrls.masterReadBytes::.cpu.data   1152172224                       # Per-master bytes read from memory
system.mem_ctrls.masterWriteBytes::.writebacks    665045056                       # Per-master bytes write to memory
system.mem_ctrls.masterReadRate::.cpu.inst 116492.010325174590                       # Per-master bytes read from memory rate (Bytes/sec)
system.mem_ctrls.masterReadRate::.cpu.data 392434443.460502922535                       # Per-master bytes read from memory rate (Bytes/sec)
system.mem_ctrls.masterWriteRate::.writebacks 226516991.983586490154                       # Per-master bytes write to memory rate (Bytes/sec)
system.mem_ctrls.masterReadAccesses::.cpu.inst         5344                       # Per-master read serviced memory accesses
system.mem_ctrls.masterReadAccesses::.cpu.data     18019768                       # Per-master read serviced memory accesses
system.mem_ctrls.masterWriteAccesses::.writebacks     10391400                       # Per-master write serviced memory accesses
system.mem_ctrls.masterReadTotalLat::.cpu.inst    326896800                       # Per-master read total memory access latency
system.mem_ctrls.masterReadTotalLat::.cpu.data 657818993972                       # Per-master read total memory access latency
system.mem_ctrls.masterWriteTotalLat::.writebacks 164744147999170                       # Per-master write total memory access latency
system.mem_ctrls.masterReadAvgLat::.cpu.inst     61170.81                       # Per-master read average memory access latency
system.mem_ctrls.masterReadAvgLat::.cpu.data     36505.41                       # Per-master read average memory access latency
system.mem_ctrls.masterWriteAvgLat::.writebacks  15853893.41                       # Per-master write average memory access latency
system.mem_ctrls.totQLat                 343149342552                       # Total ticks spent queuing
system.mem_ctrls.totMemAccLat            658145890772                       # Total ticks spent from burst creation until serviced by the DRAM
system.mem_ctrls.totBusLat                60002772620                       # Total ticks spent in databus transfers
system.mem_ctrls.avgQLat                     19055.35                       # Average queueing delay per DRAM burst
system.mem_ctrls.avgBusLat                    3332.00                       # Average bus latency per DRAM burst
system.mem_ctrls.avgMemAccLat                36547.35                       # Average memory access latency per DRAM burst
system.mem_ctrls.avgRdBW                       392.55                       # Average DRAM read bandwidth in MiByte/s
system.mem_ctrls.avgWrBW                       226.52                       # Average achieved write bandwidth in MiByte/s
system.mem_ctrls.avgRdBWSys                    392.92                       # Average system read bandwidth in MiByte/s
system.mem_ctrls.avgWrBWSys                    226.52                       # Average system write bandwidth in MiByte/s
system.mem_ctrls.peakBW                      19207.00                       # Theoretical peak bandwidth in MiByte/s
system.mem_ctrls.busUtil                         3.22                       # Data bus utilization in percentage
system.mem_ctrls.busUtilRead                     2.04                       # Data bus utilization in percentage for reads
system.mem_ctrls.busUtilWrite                    1.18                       # Data bus utilization in percentage for writes
system.mem_ctrls.avgRdQLen                       1.13                       # Average read queue length when enqueuing
system.mem_ctrls.avgWrQLen                      57.04                       # Average write queue length when enqueuing
system.mem_ctrls.readRowHits                 16042541                       # Number of row buffer hits during reads
system.mem_ctrls.writeRowHits                 9282444                       # Number of row buffer hits during writes
system.mem_ctrls.readRowHitRate                 89.09                       # Row buffer hit rate for reads
system.mem_ctrls.writeRowHitRate                89.33                       # Row buffer hit rate for writes
system.mem_ctrls.avgGap                     103318.84                       # Average gap between requests
system.mem_ctrls.pageHitRate                    89.17                       # Row buffer hit rate, read and write combined
system.mem_ctrls_0.actEnergy             4258490068.343003                       # Energy for activate commands per rank (pJ)
system.mem_ctrls_0.preEnergy             2874767082.350997                       # Energy for precharge commands per rank (pJ)
system.mem_ctrls_0.readEnergy            13787932312.129463                       # Energy for read commands per rank (pJ)
system.mem_ctrls_0.writeEnergy           7260118598.477768                       # Energy for write commands per rank (pJ)
system.mem_ctrls_0.refreshEnergy         61410026295.937828                       # Energy for refresh commands per rank (pJ)
system.mem_ctrls_0.actBackEnergy         60416666175.002022                       # Energy for active background per rank (pJ)
system.mem_ctrls_0.preBackEnergy         3341703127.857679                       # Energy for precharge background per rank (pJ)
system.mem_ctrls_0.actPowerDownEnergy    137459124072.106873                       # Energy for active power-down per rank (pJ)
system.mem_ctrls_0.prePowerDownEnergy    37107169692.547768                       # Energy for precharge power-down per rank (pJ)
system.mem_ctrls_0.selfRefreshEnergy     253550759741.738831                       # Energy for self refresh per rank (pJ)
system.mem_ctrls_0.totalEnergy           581855810446.991455                       # Total energy per rank (pJ)
system.mem_ctrls_0.averagePower            198.182404                       # Core power per rank (mW)
system.mem_ctrls_0.totalIdleTime         2677565320076                       # Total Idle time Per DRAM Rank
system.mem_ctrls_0.memoryStateTime::IDLE  14694835609                       # Time in different power states
system.mem_ctrls_0.memoryStateTime::REF   56310800000                       # Time in different power states
system.mem_ctrls_0.memoryStateTime::SREF 1669867497891                       # Time in different power states
system.mem_ctrls_0.memoryStateTime::PRE_PDN 309226386159                       # Time in different power states
system.mem_ctrls_0.memoryStateTime::ACT  187389748307                       # Time in different power states
system.mem_ctrls_0.memoryStateTime::ACT_PDN 698471739534                       # Time in different power states
system.mem_ctrls_1.actEnergy             4125549365.902845                       # Energy for activate commands per rank (pJ)
system.mem_ctrls_1.preEnergy             2785026287.700360                       # Energy for precharge commands per rank (pJ)
system.mem_ctrls_1.readEnergy            13496013250.480133                       # Energy for read commands per rank (pJ)
system.mem_ctrls_1.writeEnergy           7193033055.432709                       # Energy for write commands per rank (pJ)
system.mem_ctrls_1.refreshEnergy         59316433273.256096                       # Energy for refresh commands per rank (pJ)
system.mem_ctrls_1.actBackEnergy         58592693216.139091                       # Energy for active background per rank (pJ)
system.mem_ctrls_1.preBackEnergy         3265180573.128310                       # Energy for precharge background per rank (pJ)
system.mem_ctrls_1.actPowerDownEnergy    132799885473.324677                       # Energy for active power-down per rank (pJ)
system.mem_ctrls_1.prePowerDownEnergy    35715851342.589844                       # Energy for precharge power-down per rank (pJ)
system.mem_ctrls_1.selfRefreshEnergy     259343134560.656952                       # Energy for self refresh per rank (pJ)
system.mem_ctrls_1.totalEnergy           576964317132.929688                       # Total energy per rank (pJ)
system.mem_ctrls_1.averagePower            196.516342                       # Core power per rank (mW)
system.mem_ctrls_1.totalIdleTime         2685398905282                       # Total Idle time Per DRAM Rank
system.mem_ctrls_1.memoryStateTime::IDLE  14272761585                       # Time in different power states
system.mem_ctrls_1.memoryStateTime::REF   54391050000                       # Time in different power states
system.mem_ctrls_1.memoryStateTime::SREF 1712970503429                       # Time in different power states
system.mem_ctrls_1.memoryStateTime::PRE_PDN 297632201125                       # Time in different power states
system.mem_ctrls_1.memoryStateTime::ACT  181898290633                       # Time in different power states
system.mem_ctrls_1.memoryStateTime::ACT_PDN 674796200728                       # Time in different power states
system.mem_ctrls_2.actEnergy             4181395402.549233                       # Energy for activate commands per rank (pJ)
system.mem_ctrls_2.preEnergy             2822733745.348168                       # Energy for precharge commands per rank (pJ)
system.mem_ctrls_2.readEnergy            13588264663.148603                       # Energy for read commands per rank (pJ)
system.mem_ctrls_2.writeEnergy           7251110695.080840                       # Energy for write commands per rank (pJ)
system.mem_ctrls_2.refreshEnergy         59890501442.100822                       # Energy for refresh commands per rank (pJ)
system.mem_ctrls_2.actBackEnergy         59189555571.659836                       # Energy for active background per rank (pJ)
system.mem_ctrls_2.preBackEnergy         3306167355.854586                       # Energy for precharge background per rank (pJ)
system.mem_ctrls_2.actPowerDownEnergy    134111332640.539627                       # Energy for active power-down per rank (pJ)
system.mem_ctrls_2.prePowerDownEnergy    36034626481.508339                       # Energy for precharge power-down per rank (pJ)
system.mem_ctrls_2.selfRefreshEnergy     257735882826.614014                       # Energy for self refresh per rank (pJ)
system.mem_ctrls_2.totalEnergy           578421318849.689087                       # Total energy per rank (pJ)
system.mem_ctrls_2.averagePower            197.012602                       # Core power per rank (mW)
system.mem_ctrls_2.totalIdleTime         2682898823555                       # Total Idle time Per DRAM Rank
system.mem_ctrls_2.memoryStateTime::IDLE  14371033277                       # Time in different power states
system.mem_ctrls_2.memoryStateTime::REF   54917450000                       # Time in different power states
system.mem_ctrls_2.memoryStateTime::SREF 1701150197781                       # Time in different power states
system.mem_ctrls_2.memoryStateTime::PRE_PDN 300288446067                       # Time in different power states
system.mem_ctrls_2.memoryStateTime::ACT  183773700668                       # Time in different power states
system.mem_ctrls_2.memoryStateTime::ACT_PDN 681460179707                       # Time in different power states
system.mem_ctrls_3.actEnergy             4253910999.703239                       # Energy for activate commands per rank (pJ)
system.mem_ctrls_3.preEnergy             2871679576.514489                       # Energy for precharge commands per rank (pJ)
system.mem_ctrls_3.readEnergy            13778309006.991352                       # Energy for read commands per rank (pJ)
system.mem_ctrls_3.writeEnergy           7338271872.658519                       # Energy for write commands per rank (pJ)
system.mem_ctrls_3.refreshEnergy         60865348585.205498                       # Energy for refresh commands per rank (pJ)
system.mem_ctrls_3.actBackEnergy         60489440453.642197                       # Energy for active background per rank (pJ)
system.mem_ctrls_3.preBackEnergy         3362949114.062599                       # Energy for precharge background per rank (pJ)
system.mem_ctrls_3.actPowerDownEnergy    136363419821.193466                       # Energy for active power-down per rank (pJ)
system.mem_ctrls_3.prePowerDownEnergy    36417879718.866501                       # Energy for precharge power-down per rank (pJ)
system.mem_ctrls_3.selfRefreshEnergy     255159331648.499573                       # Energy for self refresh per rank (pJ)
system.mem_ctrls_3.totalEnergy           581245863670.003540                       # Total energy per rank (pJ)
system.mem_ctrls_3.averagePower            197.974654                       # Core power per rank (mW)
system.mem_ctrls_3.totalIdleTime         2677322471429                       # Total Idle time Per DRAM Rank
system.mem_ctrls_3.memoryStateTime::IDLE  14730112788                       # Time in different power states
system.mem_ctrls_3.memoryStateTime::REF   55811350000                       # Time in different power states
system.mem_ctrls_3.memoryStateTime::SREF 1680937500603                       # Time in different power states
system.mem_ctrls_3.memoryStateTime::PRE_PDN 303482396869                       # Time in different power states
system.mem_ctrls_3.memoryStateTime::ACT  188096879775                       # Time in different power states
system.mem_ctrls_3.memoryStateTime::ACT_PDN 692902767465                       # Time in different power states
system.pwrStateResidencyTicks::UNDEFINED 2935961007500                       # Cumulative time (in ticks) in various power states
system.cpu.branchPred.lookups               589519346                       # Number of BP lookups
system.cpu.branchPred.condPredicted         412457299                       # Number of conditional branches predicted
system.cpu.branchPred.condIncorrect           8414444                       # Number of conditional branches incorrect
system.cpu.branchPred.BTBLookups            379184829                       # Number of BTB lookups
system.cpu.branchPred.BTBHits               369718233                       # Number of BTB hits
system.cpu.branchPred.BTBCorrect                    0                       # Number of correct BTB predictions (this stat may not work properly.
system.cpu.branchPred.BTBHitPct             97.503435                       # BTB Hit Percentage
system.cpu.branchPred.usedRAS                80806329                       # Number of times the RAS was used to get a target.
system.cpu.branchPred.RASInCorrect                  8                       # Number of incorrect RAS predictions.
system.cpu.branchPred.indirectLookups            3904                       # Number of indirect predictor lookups.
system.cpu.branchPred.indirectHits               2905                       # Number of indirect target hits.
system.cpu.branchPred.indirectMisses              999                       # Number of indirect misses.
system.cpu.branchPredindirectMispredicted          638                       # Number of mispredicted indirect branches.
system.cpu_voltage_domain.voltage                   1                       # Voltage in Volts
system.cpu_clk_domain.clock                       500                       # Clock period in ticks
system.cpu.dstage2_mmu.stage2_tlb.walker.pwrStateResidencyTicks::UNDEFINED 2935961007500                       # Cumulative time (in ticks) in various power states
system.cpu.dstage2_mmu.stage2_tlb.walker.walks            0                       # Table walker walks requested
system.cpu.dstage2_mmu.stage2_tlb.walker.walkRequestOrigin_Requested::Data            0                       # Table walker requests started/completed, data/inst
system.cpu.dstage2_mmu.stage2_tlb.walker.walkRequestOrigin_Requested::Inst            0                       # Table walker requests started/completed, data/inst
system.cpu.dstage2_mmu.stage2_tlb.walker.walkRequestOrigin_Requested::total            0                       # Table walker requests started/completed, data/inst
system.cpu.dstage2_mmu.stage2_tlb.walker.walkRequestOrigin_Completed::Data            0                       # Table walker requests started/completed, data/inst
system.cpu.dstage2_mmu.stage2_tlb.walker.walkRequestOrigin_Completed::Inst            0                       # Table walker requests started/completed, data/inst
system.cpu.dstage2_mmu.stage2_tlb.walker.walkRequestOrigin_Completed::total            0                       # Table walker requests started/completed, data/inst
system.cpu.dstage2_mmu.stage2_tlb.walker.walkRequestOrigin::total            0                       # Table walker requests started/completed, data/inst
system.cpu.dstage2_mmu.stage2_tlb.inst_hits            0                       # ITB inst hits
system.cpu.dstage2_mmu.stage2_tlb.inst_misses            0                       # ITB inst misses
system.cpu.dstage2_mmu.stage2_tlb.read_hits            0                       # DTB read hits
system.cpu.dstage2_mmu.stage2_tlb.read_misses            0                       # DTB read misses
system.cpu.dstage2_mmu.stage2_tlb.write_hits            0                       # DTB write hits
system.cpu.dstage2_mmu.stage2_tlb.write_misses            0                       # DTB write misses
system.cpu.dstage2_mmu.stage2_tlb.flush_tlb            0                       # Number of times complete TLB was flushed
system.cpu.dstage2_mmu.stage2_tlb.flush_tlb_mva            0                       # Number of times TLB was flushed by MVA
system.cpu.dstage2_mmu.stage2_tlb.flush_tlb_mva_asid            0                       # Number of times TLB was flushed by MVA & ASID
system.cpu.dstage2_mmu.stage2_tlb.flush_tlb_asid            0                       # Number of times TLB was flushed by ASID
system.cpu.dstage2_mmu.stage2_tlb.flush_entries            0                       # Number of entries that have been flushed from TLB
system.cpu.dstage2_mmu.stage2_tlb.align_faults            0                       # Number of TLB faults due to alignment restrictions
system.cpu.dstage2_mmu.stage2_tlb.prefetch_faults            0                       # Number of TLB faults due to prefetch
system.cpu.dstage2_mmu.stage2_tlb.domain_faults            0                       # Number of TLB faults due to domain restrictions
system.cpu.dstage2_mmu.stage2_tlb.perms_faults            0                       # Number of TLB faults due to permissions restrictions
system.cpu.dstage2_mmu.stage2_tlb.read_accesses            0                       # DTB read accesses
system.cpu.dstage2_mmu.stage2_tlb.write_accesses            0                       # DTB write accesses
system.cpu.dstage2_mmu.stage2_tlb.inst_accesses            0                       # ITB inst accesses
system.cpu.dstage2_mmu.stage2_tlb.hits              0                       # DTB hits
system.cpu.dstage2_mmu.stage2_tlb.misses            0                       # DTB misses
system.cpu.dstage2_mmu.stage2_tlb.accesses            0                       # DTB accesses
system.cpu.dtb.walker.pwrStateResidencyTicks::UNDEFINED 2935961007500                       # Cumulative time (in ticks) in various power states
system.cpu.dtb.walker.walks                         0                       # Table walker walks requested
system.cpu.dtb.walker.walkRequestOrigin_Requested::Data            0                       # Table walker requests started/completed, data/inst
system.cpu.dtb.walker.walkRequestOrigin_Requested::Inst            0                       # Table walker requests started/completed, data/inst
system.cpu.dtb.walker.walkRequestOrigin_Requested::total            0                       # Table walker requests started/completed, data/inst
system.cpu.dtb.walker.walkRequestOrigin_Completed::Data            0                       # Table walker requests started/completed, data/inst
system.cpu.dtb.walker.walkRequestOrigin_Completed::Inst            0                       # Table walker requests started/completed, data/inst
system.cpu.dtb.walker.walkRequestOrigin_Completed::total            0                       # Table walker requests started/completed, data/inst
system.cpu.dtb.walker.walkRequestOrigin::total            0                       # Table walker requests started/completed, data/inst
system.cpu.dtb.inst_hits                            0                       # ITB inst hits
system.cpu.dtb.inst_misses                          0                       # ITB inst misses
system.cpu.dtb.read_hits                            0                       # DTB read hits
system.cpu.dtb.read_misses                          0                       # DTB read misses
system.cpu.dtb.write_hits                           0                       # DTB write hits
system.cpu.dtb.write_misses                         0                       # DTB write misses
system.cpu.dtb.flush_tlb                            0                       # Number of times complete TLB was flushed
system.cpu.dtb.flush_tlb_mva                        0                       # Number of times TLB was flushed by MVA
system.cpu.dtb.flush_tlb_mva_asid                   0                       # Number of times TLB was flushed by MVA & ASID
system.cpu.dtb.flush_tlb_asid                       0                       # Number of times TLB was flushed by ASID
system.cpu.dtb.flush_entries                        0                       # Number of entries that have been flushed from TLB
system.cpu.dtb.align_faults                         0                       # Number of TLB faults due to alignment restrictions
system.cpu.dtb.prefetch_faults                      0                       # Number of TLB faults due to prefetch
system.cpu.dtb.domain_faults                        0                       # Number of TLB faults due to domain restrictions
system.cpu.dtb.perms_faults                         0                       # Number of TLB faults due to permissions restrictions
system.cpu.dtb.read_accesses                        0                       # DTB read accesses
system.cpu.dtb.write_accesses                       0                       # DTB write accesses
system.cpu.dtb.inst_accesses                        0                       # ITB inst accesses
system.cpu.dtb.hits                                 0                       # DTB hits
system.cpu.dtb.misses                               0                       # DTB misses
system.cpu.dtb.accesses                             0                       # DTB accesses
system.cpu.istage2_mmu.stage2_tlb.walker.pwrStateResidencyTicks::UNDEFINED 2935961007500                       # Cumulative time (in ticks) in various power states
system.cpu.istage2_mmu.stage2_tlb.walker.walks            0                       # Table walker walks requested
system.cpu.istage2_mmu.stage2_tlb.walker.walkRequestOrigin_Requested::Data            0                       # Table walker requests started/completed, data/inst
system.cpu.istage2_mmu.stage2_tlb.walker.walkRequestOrigin_Requested::Inst            0                       # Table walker requests started/completed, data/inst
system.cpu.istage2_mmu.stage2_tlb.walker.walkRequestOrigin_Requested::total            0                       # Table walker requests started/completed, data/inst
system.cpu.istage2_mmu.stage2_tlb.walker.walkRequestOrigin_Completed::Data            0                       # Table walker requests started/completed, data/inst
system.cpu.istage2_mmu.stage2_tlb.walker.walkRequestOrigin_Completed::Inst            0                       # Table walker requests started/completed, data/inst
system.cpu.istage2_mmu.stage2_tlb.walker.walkRequestOrigin_Completed::total            0                       # Table walker requests started/completed, data/inst
system.cpu.istage2_mmu.stage2_tlb.walker.walkRequestOrigin::total            0                       # Table walker requests started/completed, data/inst
system.cpu.istage2_mmu.stage2_tlb.inst_hits            0                       # ITB inst hits
system.cpu.istage2_mmu.stage2_tlb.inst_misses            0                       # ITB inst misses
system.cpu.istage2_mmu.stage2_tlb.read_hits            0                       # DTB read hits
system.cpu.istage2_mmu.stage2_tlb.read_misses            0                       # DTB read misses
system.cpu.istage2_mmu.stage2_tlb.write_hits            0                       # DTB write hits
system.cpu.istage2_mmu.stage2_tlb.write_misses            0                       # DTB write misses
system.cpu.istage2_mmu.stage2_tlb.flush_tlb            0                       # Number of times complete TLB was flushed
system.cpu.istage2_mmu.stage2_tlb.flush_tlb_mva            0                       # Number of times TLB was flushed by MVA
system.cpu.istage2_mmu.stage2_tlb.flush_tlb_mva_asid            0                       # Number of times TLB was flushed by MVA & ASID
system.cpu.istage2_mmu.stage2_tlb.flush_tlb_asid            0                       # Number of times TLB was flushed by ASID
system.cpu.istage2_mmu.stage2_tlb.flush_entries            0                       # Number of entries that have been flushed from TLB
system.cpu.istage2_mmu.stage2_tlb.align_faults            0                       # Number of TLB faults due to alignment restrictions
system.cpu.istage2_mmu.stage2_tlb.prefetch_faults            0                       # Number of TLB faults due to prefetch
system.cpu.istage2_mmu.stage2_tlb.domain_faults            0                       # Number of TLB faults due to domain restrictions
system.cpu.istage2_mmu.stage2_tlb.perms_faults            0                       # Number of TLB faults due to permissions restrictions
system.cpu.istage2_mmu.stage2_tlb.read_accesses            0                       # DTB read accesses
system.cpu.istage2_mmu.stage2_tlb.write_accesses            0                       # DTB write accesses
system.cpu.istage2_mmu.stage2_tlb.inst_accesses            0                       # ITB inst accesses
system.cpu.istage2_mmu.stage2_tlb.hits              0                       # DTB hits
system.cpu.istage2_mmu.stage2_tlb.misses            0                       # DTB misses
system.cpu.istage2_mmu.stage2_tlb.accesses            0                       # DTB accesses
system.cpu.itb.walker.pwrStateResidencyTicks::UNDEFINED 2935961007500                       # Cumulative time (in ticks) in various power states
system.cpu.itb.walker.walks                         0                       # Table walker walks requested
system.cpu.itb.walker.walkRequestOrigin_Requested::Data            0                       # Table walker requests started/completed, data/inst
system.cpu.itb.walker.walkRequestOrigin_Requested::Inst            0                       # Table walker requests started/completed, data/inst
system.cpu.itb.walker.walkRequestOrigin_Requested::total            0                       # Table walker requests started/completed, data/inst
[...]
system.l2.demand_miss_rate::.cpu.data        0.669302                       # miss rate for demand accesses
system.l2.demand_miss_rate::total            0.669162                       # miss rate for demand accesses
system.l2.overall_miss_rate::.cpu.inst       0.392294                       # miss rate for overall accesses
system.l2.overall_miss_rate::.cpu.data       0.669302                       # miss rate for overall accesses
system.l2.overall_miss_rate::total           0.669162                       # miss rate for overall accesses
system.l2.ReadExReq_avg_miss_latency::.cpu.data 88388.605850                       # average ReadExReq miss latency
system.l2.ReadExReq_avg_miss_latency::total 88388.605850                       # average ReadExReq miss latency
system.l2.ReadCleanReq_avg_miss_latency::.cpu.inst 108806.267540                       # average ReadCleanReq miss latency
system.l2.ReadCleanReq_avg_miss_latency::total 108806.267540                       # average ReadCleanReq miss latency
system.l2.ReadSharedReq_avg_miss_latency::.cpu.data 82557.774604                       # average ReadSharedReq miss latency
system.l2.ReadSharedReq_avg_miss_latency::total 82557.774604                       # average ReadSharedReq miss latency
system.l2.demand_avg_miss_latency::.cpu.inst 108806.267540                       # average overall miss latency
system.l2.demand_avg_miss_latency::.cpu.data 83928.386731                       # average overall miss latency
system.l2.demand_avg_miss_latency::total 83935.763787                       # average overall miss latency
system.l2.overall_avg_miss_latency::.cpu.inst 108806.267540                       # average overall miss latency
system.l2.overall_avg_miss_latency::.cpu.data 83928.386731                       # average overall miss latency
system.l2.overall_avg_miss_latency::total 83935.763787                       # average overall miss latency
system.l2.blocked_cycles::no_mshrs                  0                       # number of cycles access was blocked
system.l2.blocked_cycles::no_targets                0                       # number of cycles access was blocked
system.l2.blocked::no_mshrs                         0                       # number of cycles access was blocked
system.l2.blocked::no_targets                       0                       # number of cycles access was blocked
system.l2.avg_blocked_cycles::no_mshrs            nan                       # average number of cycles each access was blocked
system.l2.avg_blocked_cycles::no_targets          nan                       # average number of cycles each access was blocked
system.l2.writebacks::.writebacks            10391400                       # number of writebacks
system.l2.writebacks::total                  10391400                       # number of writebacks
system.l2.ReadCleanReq_mshr_hits::.cpu.inst            1                       # number of ReadCleanReq MSHR hits
system.l2.ReadCleanReq_mshr_hits::total             1                       # number of ReadCleanReq MSHR hits
system.l2.demand_mshr_hits::.cpu.inst               1                       # number of demand (read+write) MSHR hits
system.l2.demand_mshr_hits::total                   1                       # number of demand (read+write) MSHR hits
system.l2.overall_mshr_hits::.cpu.inst              1                       # number of overall MSHR hits
system.l2.overall_mshr_hits::total                  1                       # number of overall MSHR hits
system.l2.CleanEvict_mshr_misses::.writebacks           74                       # number of CleanEvict MSHR misses
system.l2.CleanEvict_mshr_misses::total            74                       # number of CleanEvict MSHR misses
system.l2.ReadExReq_mshr_misses::.cpu.data      4235779                       # number of ReadExReq MSHR misses
system.l2.ReadExReq_mshr_misses::total        4235779                       # number of ReadExReq MSHR misses
system.l2.ReadCleanReq_mshr_misses::.cpu.inst         5344                       # number of ReadCleanReq MSHR misses
system.l2.ReadCleanReq_mshr_misses::total         5344                       # number of ReadCleanReq MSHR misses
system.l2.ReadSharedReq_mshr_misses::.cpu.data     13783989                       # number of ReadSharedReq MSHR misses
system.l2.ReadSharedReq_mshr_misses::total     13783989                       # number of ReadSharedReq MSHR misses
system.l2.InvalidateReq_mshr_misses::.cpu.data      1418717                       # number of InvalidateReq MSHR misses
system.l2.InvalidateReq_mshr_misses::total      1418717                       # number of InvalidateReq MSHR misses
system.l2.demand_mshr_misses::.cpu.inst          5344                       # number of demand (read+write) MSHR misses
system.l2.demand_mshr_misses::.cpu.data      18019768                       # number of demand (read+write) MSHR misses
system.l2.demand_mshr_misses::total          18025112                       # number of demand (read+write) MSHR misses
system.l2.overall_mshr_misses::.cpu.inst         5344                       # number of overall MSHR misses
system.l2.overall_mshr_misses::.cpu.data     18019768                       # number of overall MSHR misses
system.l2.overall_mshr_misses::total         18025112                       # number of overall MSHR misses
system.l2.ReadExReq_mshr_miss_latency::.cpu.data 331458165128                       # number of ReadExReq MSHR miss cycles
system.l2.ReadExReq_mshr_miss_latency::total 331458165128                       # number of ReadExReq MSHR miss cycles
system.l2.ReadCleanReq_mshr_miss_latency::.cpu.inst    527095252                       # number of ReadCleanReq MSHR miss cycles
system.l2.ReadCleanReq_mshr_miss_latency::total    527095252                       # number of ReadCleanReq MSHR miss cycles
system.l2.ReadSharedReq_mshr_miss_latency::.cpu.data 997918255250                       # number of ReadSharedReq MSHR miss cycles
system.l2.ReadSharedReq_mshr_miss_latency::total 997918255250                       # number of ReadSharedReq MSHR miss cycles
system.l2.InvalidateReq_mshr_miss_latency::.cpu.data  24326543861                       # number of InvalidateReq MSHR miss cycles
system.l2.InvalidateReq_mshr_miss_latency::total  24326543861                       # number of InvalidateReq MSHR miss cycles
system.l2.demand_mshr_miss_latency::.cpu.inst    527095252                       # number of demand (read+write) MSHR miss cycles
system.l2.demand_mshr_miss_latency::.cpu.data 1329376420378                       # number of demand (read+write) MSHR miss cycles
system.l2.demand_mshr_miss_latency::total 1329903515630                       # number of demand (read+write) MSHR miss cycles
system.l2.overall_mshr_miss_latency::.cpu.inst    527095252                       # number of overall MSHR miss cycles
system.l2.overall_mshr_miss_latency::.cpu.data 1329376420378                       # number of overall MSHR miss cycles
system.l2.overall_mshr_miss_latency::total 1329903515630                       # number of overall MSHR miss cycles
system.l2.CleanEvict_mshr_miss_rate::.writebacks          inf                       # mshr miss rate for CleanEvict accesses
system.l2.CleanEvict_mshr_miss_rate::total          inf                       # mshr miss rate for CleanEvict accesses
system.l2.ReadExReq_mshr_miss_rate::.cpu.data     0.924642                       # mshr miss rate for ReadExReq accesses
system.l2.ReadExReq_mshr_miss_rate::total     0.924642                       # mshr miss rate for ReadExReq accesses
system.l2.ReadCleanReq_mshr_miss_rate::.cpu.inst     0.392220                       # mshr miss rate for ReadCleanReq accesses
system.l2.ReadCleanReq_mshr_miss_rate::total     0.392220                       # mshr miss rate for ReadCleanReq accesses
system.l2.ReadSharedReq_mshr_miss_rate::.cpu.data     0.616948                       # mshr miss rate for ReadSharedReq accesses
system.l2.ReadSharedReq_mshr_miss_rate::total     0.616948                       # mshr miss rate for ReadSharedReq accesses
system.l2.InvalidateReq_mshr_miss_rate::.cpu.data     0.981350                       # mshr miss rate for InvalidateReq accesses
system.l2.InvalidateReq_mshr_miss_rate::total     0.981350                       # mshr miss rate for InvalidateReq accesses
system.l2.demand_mshr_miss_rate::.cpu.inst     0.392220                       # mshr miss rate for demand accesses
system.l2.demand_mshr_miss_rate::.cpu.data     0.669302                       # mshr miss rate for demand accesses
system.l2.demand_mshr_miss_rate::total       0.669162                       # mshr miss rate for demand accesses
system.l2.overall_mshr_miss_rate::.cpu.inst     0.392220                       # mshr miss rate for overall accesses
system.l2.overall_mshr_miss_rate::.cpu.data     0.669302                       # mshr miss rate for overall accesses
system.l2.overall_mshr_miss_rate::total      0.669162                       # mshr miss rate for overall accesses
system.l2.ReadExReq_avg_mshr_miss_latency::.cpu.data 78251.996888                       # average ReadExReq mshr miss latency
system.l2.ReadExReq_avg_mshr_miss_latency::total 78251.996888                       # average ReadExReq mshr miss latency
system.l2.ReadCleanReq_avg_mshr_miss_latency::.cpu.inst 98633.093563                       # average ReadCleanReq mshr miss latency
system.l2.ReadCleanReq_avg_mshr_miss_latency::total 98633.093563                       # average ReadCleanReq mshr miss latency
system.l2.ReadSharedReq_avg_mshr_miss_latency::.cpu.data 72396.913205                       # average ReadSharedReq mshr miss latency
system.l2.ReadSharedReq_avg_mshr_miss_latency::total 72396.913205                       # average ReadSharedReq mshr miss latency
system.l2.InvalidateReq_avg_mshr_miss_latency::.cpu.data 17146.861468                       # average InvalidateReq mshr miss latency
system.l2.InvalidateReq_avg_mshr_miss_latency::total 17146.861468                       # average InvalidateReq mshr miss latency
system.l2.demand_avg_mshr_miss_latency::.cpu.inst 98633.093563                       # average overall mshr miss latency
system.l2.demand_avg_mshr_miss_latency::.cpu.data 73773.226180                       # average overall mshr miss latency
system.l2.demand_avg_mshr_miss_latency::total 73780.596516                       # average overall mshr miss latency
system.l2.overall_avg_mshr_miss_latency::.cpu.inst 98633.093563                       # average overall mshr miss latency
system.l2.overall_avg_mshr_miss_latency::.cpu.data 73773.226180                       # average overall mshr miss latency
system.l2.overall_avg_mshr_miss_latency::total 73780.596516                       # average overall mshr miss latency
system.l2.replacements                       19432862                       # number of replacements
system.membus.snoop_filter.tot_requests      38871334                       # Total number of requests made to the snoop filter.
system.membus.snoop_filter.hit_single_requests     19427506                       # Number of requests hitting in the snoop filter with a single holder of the requested data.
system.membus.snoop_filter.hit_multi_requests            0                       # Number of requests hitting in the snoop filter with multiple (>1) holders of the requested data.
system.membus.snoop_filter.tot_snoops               0                       # Total number of snoops made to the snoop filter.
system.membus.snoop_filter.hit_single_snoops            0                       # Number of snoops hitting in the snoop filter with a single holder of the requested data.
system.membus.snoop_filter.hit_multi_snoops            0                       # Number of snoops hitting in the snoop filter with multiple (>1) holders of the requested data.
system.membus.pwrStateResidencyTicks::UNDEFINED 2935961007500                       # Cumulative time (in ticks) in various power states
system.membus.trans_dist::ReadResp           13789331                       # Transaction distribution
system.membus.trans_dist::WritebackDirty     10391400                       # Transaction distribution
system.membus.trans_dist::CleanEvict          9035948                       # Transaction distribution
system.membus.trans_dist::ReadExReq           4235779                       # Transaction distribution
system.membus.trans_dist::ReadExResp          4235779                       # Transaction distribution
system.membus.trans_dist::ReadSharedReq      13789333                       # Transaction distribution
system.membus.trans_dist::InvalidateReq       1418717                       # Transaction distribution
system.membus.pkt_count_system.l2.mem_side::system.mem_ctrls.port     56896287                       # Packet count per connected master and slave (bytes)
system.membus.pkt_count::total               56896287                       # Packet count per connected master and slave (bytes)
system.membus.pkt_size_system.l2.mem_side::system.mem_ctrls.port   1818656640                       # Cumulative packet size per connected master and slave (bytes)
system.membus.pkt_size::total              1818656640                       # Cumulative packet size per connected master and slave (bytes)
system.membus.snoops                                0                       # Total snoops (count)
system.membus.snoopTraffic                          0                       # Total snoop traffic (bytes)
system.membus.snoop_fanout::samples          19443829                       # Request fanout histogram
system.membus.snoop_fanout::mean                    0                       # Request fanout histogram
system.membus.snoop_fanout::stdev                   0                       # Request fanout histogram
system.membus.snoop_fanout::underflows              0      0.00%      0.00% # Request fanout histogram
system.membus.snoop_fanout::0                19443829    100.00%    100.00% # Request fanout histogram
system.membus.snoop_fanout::1                       0      0.00%    100.00% # Request fanout histogram
system.membus.snoop_fanout::overflows               0      0.00%    100.00% # Request fanout histogram
system.membus.snoop_fanout::min_value               0                       # Request fanout histogram
system.membus.snoop_fanout::max_value               0                       # Request fanout histogram
system.membus.snoop_fanout::total            19443829                       # Request fanout histogram
system.membus.reqLayer0.occupancy         57693796726                       # Layer occupancy (ticks)
system.membus.reqLayer0.utilization               2.0                       # Layer utilization (%)
system.membus.respLayer1.occupancy        61406705840                       # Layer occupancy (ticks)
system.membus.respLayer1.utilization              2.1                       # Layer utilization (%)
system.tol2bus.snoop_filter.tot_requests     56764153                       # Total number of requests made to the snoop filter.
system.tol2bus.snoop_filter.hit_single_requests     28381612                       # Number of requests hitting in the snoop filter with a single holder of the requested data.
system.tol2bus.snoop_filter.hit_multi_requests            3                       # Number of requests hitting in the snoop filter with multiple (>1) holders of the requested data.
system.tol2bus.snoop_filter.tot_snoops           5588                       # Total number of snoops made to the snoop filter.
system.tol2bus.snoop_filter.hit_single_snoops         5588                       # Number of snoops hitting in the snoop filter with a single holder of the requested data.
system.tol2bus.snoop_filter.hit_multi_snoops            0                       # Number of snoops hitting in the snoop filter with multiple (>1) holders of the requested data.
system.tol2bus.pwrStateResidencyTicks::UNDEFINED 2935961007500                       # Cumulative time (in ticks) in various power states
system.tol2bus.trans_dist::ReadResp          22355844                       # Transaction distribution
system.tol2bus.trans_dist::WritebackDirty     28621705                       # Transaction distribution
system.tol2bus.trans_dist::WritebackClean        13111                       # Transaction distribution
system.tol2bus.trans_dist::CleanEvict        19179537                       # Transaction distribution
system.tol2bus.trans_dist::ReadExReq          4580992                       # Transaction distribution
system.tol2bus.trans_dist::ReadExResp         4580992                       # Transaction distribution
system.tol2bus.trans_dist::ReadCleanReq         13625                       # Transaction distribution
system.tol2bus.trans_dist::ReadSharedReq     22342221                       # Transaction distribution
system.tol2bus.trans_dist::InvalidateReq      1445679                       # Transaction distribution
system.tol2bus.trans_dist::InvalidateResp      1445679                       # Transaction distribution
system.tol2bus.pkt_count_system.cpu.icache.mem_side::system.l2.cpu_side        40359                       # Packet count per connected master and slave (bytes)
system.tol2bus.pkt_count_system.cpu.dcache.mem_side::system.l2.cpu_side     85106164                       # Packet count per connected master and slave (bytes)
system.tol2bus.pkt_count::total              85146523                       # Packet count per connected master and slave (bytes)
system.tol2bus.pkt_size_system.cpu.icache.mem_side::system.l2.cpu_side      1710976                       # Cumulative packet size per connected master and slave (bytes)
system.tol2bus.pkt_size_system.cpu.dcache.mem_side::system.l2.cpu_side   2889825152                       # Cumulative packet size per connected master and slave (bytes)
system.tol2bus.pkt_size::total             2891536128                       # Cumulative packet size per connected master and slave (bytes)
system.tol2bus.snoops                        19432862                       # Total snoops (count)
system.tol2bus.snoopTraffic                 665049600                       # Total snoop traffic (bytes)
system.tol2bus.snoop_fanout::samples         47815405                       # Request fanout histogram
system.tol2bus.snoop_fanout::mean            0.000117                       # Request fanout histogram
system.tol2bus.snoop_fanout::stdev           0.010815                       # Request fanout histogram
system.tol2bus.snoop_fanout::underflows             0      0.00%      0.00% # Request fanout histogram
system.tol2bus.snoop_fanout::0               47809812     99.99%     99.99% # Request fanout histogram
system.tol2bus.snoop_fanout::1                   5593      0.01%    100.00% # Request fanout histogram
system.tol2bus.snoop_fanout::2                      0      0.00%    100.00% # Request fanout histogram
system.tol2bus.snoop_fanout::overflows              0      0.00%    100.00% # Request fanout histogram
system.tol2bus.snoop_fanout::min_value              0                       # Request fanout histogram
system.tol2bus.snoop_fanout::max_value              1                       # Request fanout histogram
system.tol2bus.snoop_fanout::total           47815405                       # Request fanout histogram
system.tol2bus.reqLayer0.occupancy        46625531153                       # Layer occupancy (ticks)
system.tol2bus.reqLayer0.utilization              1.6                       # Layer utilization (%)
system.tol2bus.respLayer0.occupancy          20437993                       # Layer occupancy (ticks)
system.tol2bus.respLayer0.utilization             0.0                       # Layer utilization (%)
system.tol2bus.respLayer1.occupancy       41107688270                       # Layer occupancy (ticks)
system.tol2bus.respLayer1.utilization             1.4                       # Layer utilization (%)

---------- End Simulation Statistics   ----------
