
---------- Begin Simulation Statistics ----------
sim_seconds                               1545.341343                       # Number of seconds simulated
sim_ticks                                1545341343361500                       # Number of ticks simulated
final_tick                               1545341343361500                       # Number of ticks from beginning of simulation (restored from checkpoints and never reset)
sim_freq                                 1000000000000                       # Frequency of simulated ticks
host_inst_rate                                1610174                       # Simulator instruction rate (inst/s)
host_op_rate                                  1886343                       # Simulator op (including micro ops) rate (op/s)
host_tick_rate                           1010098157653                       # Simulator tick rate (ticks/s)
host_mem_usage                                4855160                       # Number of bytes of host memory used
host_seconds                                  1529.89                       # Real time elapsed on the host
sim_insts                                  2463393243                       # Number of instructions simulated
sim_ops                                    2885901693                       # Number of ops (including micro ops) simulated
system.voltage_domain.voltage                       1                       # Voltage in Volts
system.clk_domain.clock                           625                       # Clock period in ticks
system.bootmem.pwrStateResidencyTicks::UNDEFINED 1545341343361500                       # Cumulative time (in ticks) in various power states
system.bootmem.bytes_read::.cpu0.inst              92                       # Number of bytes read from this memory
system.bootmem.bytes_read::.cpu0.data              36                       # Number of bytes read from this memory
system.bootmem.bytes_read::.cpu1.inst              76                       # Number of bytes read from this memory
system.bootmem.bytes_read::.cpu1.data              16                       # Number of bytes read from this memory
system.bootmem.bytes_read::.cpu2.inst              76                       # Number of bytes read from this memory
system.bootmem.bytes_read::.cpu2.data              16                       # Number of bytes read from this memory
system.bootmem.bytes_read::.cpu3.inst              76                       # Number of bytes read from this memory
system.bootmem.bytes_read::.cpu3.data              16                       # Number of bytes read from this memory
system.bootmem.bytes_read::total                  404                       # Number of bytes read from this memory
system.bootmem.bytes_inst_read::.cpu0.inst           92                       # Number of instructions bytes read from this memory
system.bootmem.bytes_inst_read::.cpu1.inst           76                       # Number of instructions bytes read from this memory
system.bootmem.bytes_inst_read::.cpu2.inst           76                       # Number of instructions bytes read from this memory
system.bootmem.bytes_inst_read::.cpu3.inst           76                       # Number of instructions bytes read from this memory
system.bootmem.bytes_inst_read::total             320                       # Number of instructions bytes read from this memory
system.bootmem.num_reads::.cpu0.inst               23                       # Number of read requests responded to by this memory
system.bootmem.num_reads::.cpu0.data                5                       # Number of read requests responded to by this memory
system.bootmem.num_reads::.cpu1.inst               19                       # Number of read requests responded to by this memory
system.bootmem.num_reads::.cpu1.data                2                       # Number of read requests responded to by this memory
system.bootmem.num_reads::.cpu2.inst               19                       # Number of read requests responded to by this memory
system.bootmem.num_reads::.cpu2.data                2                       # Number of read requests responded to by this memory
system.bootmem.num_reads::.cpu3.inst               19                       # Number of read requests responded to by this memory
system.bootmem.num_reads::.cpu3.data                2                       # Number of read requests responded to by this memory
system.bootmem.num_reads::total                    91                       # Number of read requests responded to by this memory
system.bootmem.bw_read::.cpu0.inst                  0                       # Total read bandwidth from this memory (bytes/s)
system.bootmem.bw_read::.cpu0.data                  0                       # Total read bandwidth from this memory (bytes/s)
system.bootmem.bw_read::.cpu1.inst                  0                       # Total read bandwidth from this memory (bytes/s)
system.bootmem.bw_read::.cpu1.data                  0                       # Total read bandwidth from this memory (bytes/s)
system.bootmem.bw_read::.cpu2.inst                  0                       # Total read bandwidth from this memory (bytes/s)
system.bootmem.bw_read::.cpu2.data                  0                       # Total read bandwidth from this memory (bytes/s)
system.bootmem.bw_read::.cpu3.inst                  0                       # Total read bandwidth from this memory (bytes/s)
system.bootmem.bw_read::.cpu3.data                  0                       # Total read bandwidth from this memory (bytes/s)
system.bootmem.bw_read::total                       0                       # Total read bandwidth from this memory (bytes/s)
system.bootmem.bw_inst_read::.cpu0.inst             0                       # Instruction read bandwidth from this memory (bytes/s)
system.bootmem.bw_inst_read::.cpu1.inst             0                       # Instruction read bandwidth from this memory (bytes/s)
system.bootmem.bw_inst_read::.cpu2.inst             0                       # Instruction read bandwidth from this memory (bytes/s)
system.bootmem.bw_inst_read::.cpu3.inst             0                       # Instruction read bandwidth from this memory (bytes/s)
system.bootmem.bw_inst_read::total                  0                       # Instruction read bandwidth from this memory (bytes/s)
system.bootmem.bw_total::.cpu0.inst                 0                       # Total bandwidth to/from this memory (bytes/s)
system.bootmem.bw_total::.cpu0.data                 0                       # Total bandwidth to/from this memory (bytes/s)
system.bootmem.bw_total::.cpu1.inst                 0                       # Total bandwidth to/from this memory (bytes/s)
system.bootmem.bw_total::.cpu1.data                 0                       # Total bandwidth to/from this memory (bytes/s)
system.bootmem.bw_total::.cpu2.inst                 0                       # Total bandwidth to/from this memory (bytes/s)
system.bootmem.bw_total::.cpu2.data                 0                       # Total bandwidth to/from this memory (bytes/s)
system.bootmem.bw_total::.cpu3.inst                 0                       # Total bandwidth to/from this memory (bytes/s)
system.bootmem.bw_total::.cpu3.data                 0                       # Total bandwidth to/from this memory (bytes/s)
system.bootmem.bw_total::total                      0                       # Total bandwidth to/from this memory (bytes/s)
system.mem_ctrls.pwrStateResidencyTicks::UNDEFINED 1545341343361500                       # Cumulative time (in ticks) in various power states
system.mem_ctrls.bytes_read::.cpu0.dtb.walker      1573184                       # Number of bytes read from this memory
system.mem_ctrls.bytes_read::.cpu0.itb.walker      1001664                       # Number of bytes read from this memory
system.mem_ctrls.bytes_read::.cpu0.inst      56871312                       # Number of bytes read from this memory
system.mem_ctrls.bytes_read::.cpu0.data     274966976                       # Number of bytes read from this memory
system.mem_ctrls.bytes_read::.cpu1.dtb.walker      1327552                       # Number of bytes read from this memory
system.mem_ctrls.bytes_read::.cpu1.itb.walker       871616                       # Number of bytes read from this memory
system.mem_ctrls.bytes_read::.cpu1.inst      59152628                       # Number of bytes read from this memory
system.mem_ctrls.bytes_read::.cpu1.data     112213064                       # Number of bytes read from this memory
system.mem_ctrls.bytes_read::.cpu2.dtb.walker      1044288                       # Number of bytes read from this memory
system.mem_ctrls.bytes_read::.cpu2.itb.walker       679040                       # Number of bytes read from this memory
system.mem_ctrls.bytes_read::.cpu2.inst      33351388                       # Number of bytes read from this memory
system.mem_ctrls.bytes_read::.cpu2.data      75850392                       # Number of bytes read from this memory
system.mem_ctrls.bytes_read::.cpu3.dtb.walker      1088128                       # Number of bytes read from this memory
system.mem_ctrls.bytes_read::.cpu3.itb.walker       862976                       # Number of bytes read from this memory
system.mem_ctrls.bytes_read::.cpu3.inst      41056132                       # Number of bytes read from this memory
system.mem_ctrls.bytes_read::.cpu3.data      74085992                       # Number of bytes read from this memory
system.mem_ctrls.bytes_read::.pci_ide          518784                       # Number of bytes read from this memory
system.mem_ctrls.bytes_read::total          736515116                       # Number of bytes read from this memory
system.mem_ctrls.bytes_inst_read::.cpu0.inst     56871312                       # Number of instructions bytes read from this memory
system.mem_ctrls.bytes_inst_read::.cpu1.inst     59152628                       # Number of instructions bytes read from this memory
system.mem_ctrls.bytes_inst_read::.cpu2.inst     33351388                       # Number of instructions bytes read from this memory
system.mem_ctrls.bytes_inst_read::.cpu3.inst     41056132                       # Number of instructions bytes read from this memory
system.mem_ctrls.bytes_inst_read::total     190431460                       # Number of instructions bytes read from this memory
system.mem_ctrls.bytes_written::.writebacks    586023680                       # Number of bytes written to this memory
system.mem_ctrls.bytes_written::.cpu0.data        20588                       # Number of bytes written to this memory
system.mem_ctrls.bytes_written::.cpu1.data            4                       # Number of bytes written to this memory
system.mem_ctrls.bytes_written::.cpu2.data            4                       # Number of bytes written to this memory
system.mem_ctrls.bytes_written::.cpu3.data            4                       # Number of bytes written to this memory
system.mem_ctrls.bytes_written::total       586044280                       # Number of bytes written to this memory
system.mem_ctrls.num_reads::.cpu0.dtb.walker        24581                       # Number of read requests responded to by this memory
system.mem_ctrls.num_reads::.cpu0.itb.walker        15651                       # Number of read requests responded to by this memory
system.mem_ctrls.num_reads::.cpu0.inst         892998                       # Number of read requests responded to by this memory
system.mem_ctrls.num_reads::.cpu0.data        4296366                       # Number of read requests responded to by this memory
system.mem_ctrls.num_reads::.cpu1.dtb.walker        20743                       # Number of read requests responded to by this memory
system.mem_ctrls.num_reads::.cpu1.itb.walker        13619                       # Number of read requests responded to by this memory
system.mem_ctrls.num_reads::.cpu1.inst         924347                       # Number of read requests responded to by this memory
system.mem_ctrls.num_reads::.cpu1.data        1753344                       # Number of read requests responded to by this memory
system.mem_ctrls.num_reads::.cpu2.dtb.walker        16317                       # Number of read requests responded to by this memory
system.mem_ctrls.num_reads::.cpu2.itb.walker        10610                       # Number of read requests responded to by this memory
system.mem_ctrls.num_reads::.cpu2.inst         521212                       # Number of read requests responded to by this memory
system.mem_ctrls.num_reads::.cpu2.data        1185179                       # Number of read requests responded to by this memory
system.mem_ctrls.num_reads::.cpu3.dtb.walker        17002                       # Number of read requests responded to by this memory
system.mem_ctrls.num_reads::.cpu3.itb.walker        13484                       # Number of read requests responded to by this memory
system.mem_ctrls.num_reads::.cpu3.inst         641608                       # Number of read requests responded to by this memory
system.mem_ctrls.num_reads::.cpu3.data        1157612                       # Number of read requests responded to by this memory
system.mem_ctrls.num_reads::.pci_ide             8106                       # Number of read requests responded to by this memory
system.mem_ctrls.num_reads::total            11512779                       # Number of read requests responded to by this memory
system.mem_ctrls.num_writes::.writebacks      9156620                       # Number of write requests responded to by this memory
system.mem_ctrls.num_writes::.cpu0.data          2574                       # Number of write requests responded to by this memory
system.mem_ctrls.num_writes::.cpu1.data             1                       # Number of write requests responded to by this memory
system.mem_ctrls.num_writes::.cpu2.data             1                       # Number of write requests responded to by this memory
system.mem_ctrls.num_writes::.cpu3.data             1                       # Number of write requests responded to by this memory
system.mem_ctrls.num_writes::total            9159197                       # Number of write requests responded to by this memory
system.mem_ctrls.bw_read::.cpu0.dtb.walker         1018                       # Total read bandwidth from this memory (bytes/s)
system.mem_ctrls.bw_read::.cpu0.itb.walker          648                       # Total read bandwidth from this memory (bytes/s)
system.mem_ctrls.bw_read::.cpu0.inst            36802                       # Total read bandwidth from this memory (bytes/s)
system.mem_ctrls.bw_read::.cpu0.data           177933                       # Total read bandwidth from this memory (bytes/s)
system.mem_ctrls.bw_read::.cpu1.dtb.walker          859                       # Total read bandwidth from this memory (bytes/s)
system.mem_ctrls.bw_read::.cpu1.itb.walker          564                       # Total read bandwidth from this memory (bytes/s)
system.mem_ctrls.bw_read::.cpu1.inst            38278                       # Total read bandwidth from this memory (bytes/s)
system.mem_ctrls.bw_read::.cpu1.data            72614                       # Total read bandwidth from this memory (bytes/s)
system.mem_ctrls.bw_read::.cpu2.dtb.walker          676                       # Total read bandwidth from this memory (bytes/s)
system.mem_ctrls.bw_read::.cpu2.itb.walker          439                       # Total read bandwidth from this memory (bytes/s)
system.mem_ctrls.bw_read::.cpu2.inst            21582                       # Total read bandwidth from this memory (bytes/s)
system.mem_ctrls.bw_read::.cpu2.data            49083                       # Total read bandwidth from this memory (bytes/s)
system.mem_ctrls.bw_read::.cpu3.dtb.walker          704                       # Total read bandwidth from this memory (bytes/s)
system.mem_ctrls.bw_read::.cpu3.itb.walker          558                       # Total read bandwidth from this memory (bytes/s)
system.mem_ctrls.bw_read::.cpu3.inst            26568                       # Total read bandwidth from this memory (bytes/s)
system.mem_ctrls.bw_read::.cpu3.data            47942                       # Total read bandwidth from this memory (bytes/s)
system.mem_ctrls.bw_read::.pci_ide                336                       # Total read bandwidth from this memory (bytes/s)
system.mem_ctrls.bw_read::total                476604                       # Total read bandwidth from this memory (bytes/s)
system.mem_ctrls.bw_inst_read::.cpu0.inst        36802                       # Instruction read bandwidth from this memory (bytes/s)
system.mem_ctrls.bw_inst_read::.cpu1.inst        38278                       # Instruction read bandwidth from this memory (bytes/s)
system.mem_ctrls.bw_inst_read::.cpu2.inst        21582                       # Instruction read bandwidth from this memory (bytes/s)
system.mem_ctrls.bw_inst_read::.cpu3.inst        26568                       # Instruction read bandwidth from this memory (bytes/s)
system.mem_ctrls.bw_inst_read::total           123229                       # Instruction read bandwidth from this memory (bytes/s)
system.mem_ctrls.bw_write::.writebacks         379220                       # Write bandwidth from this memory (bytes/s)
system.mem_ctrls.bw_write::.cpu0.data              13                       # Write bandwidth from this memory (bytes/s)
system.mem_ctrls.bw_write::.cpu1.data               0                       # Write bandwidth from this memory (bytes/s)
system.mem_ctrls.bw_write::.cpu2.data               0                       # Write bandwidth from this memory (bytes/s)
system.mem_ctrls.bw_write::.cpu3.data               0                       # Write bandwidth from this memory (bytes/s)
system.mem_ctrls.bw_write::total               379233                       # Write bandwidth from this memory (bytes/s)
system.mem_ctrls.bw_total::.writebacks         379220                       # Total bandwidth to/from this memory (bytes/s)
system.mem_ctrls.bw_total::.cpu0.dtb.walker         1018                       # Total bandwidth to/from this memory (bytes/s)
system.mem_ctrls.bw_total::.cpu0.itb.walker          648                       # Total bandwidth to/from this memory (bytes/s)
system.mem_ctrls.bw_total::.cpu0.inst           36802                       # Total bandwidth to/from this memory (bytes/s)
system.mem_ctrls.bw_total::.cpu0.data          177946                       # Total bandwidth to/from this memory (bytes/s)
system.mem_ctrls.bw_total::.cpu1.dtb.walker          859                       # Total bandwidth to/from this memory (bytes/s)
system.mem_ctrls.bw_total::.cpu1.itb.walker          564                       # Total bandwidth to/from this memory (bytes/s)
system.mem_ctrls.bw_total::.cpu1.inst           38278                       # Total bandwidth to/from this memory (bytes/s)
system.mem_ctrls.bw_total::.cpu1.data           72614                       # Total bandwidth to/from this memory (bytes/s)
system.mem_ctrls.bw_total::.cpu2.dtb.walker          676                       # Total bandwidth to/from this memory (bytes/s)
system.mem_ctrls.bw_total::.cpu2.itb.walker          439                       # Total bandwidth to/from this memory (bytes/s)
system.mem_ctrls.bw_total::.cpu2.inst           21582                       # Total bandwidth to/from this memory (bytes/s)
system.mem_ctrls.bw_total::.cpu2.data           49083                       # Total bandwidth to/from this memory (bytes/s)
system.mem_ctrls.bw_total::.cpu3.dtb.walker          704                       # Total bandwidth to/from this memory (bytes/s)
system.mem_ctrls.bw_total::.cpu3.itb.walker          558                       # Total bandwidth to/from this memory (bytes/s)
system.mem_ctrls.bw_total::.cpu3.inst           26568                       # Total bandwidth to/from this memory (bytes/s)
system.mem_ctrls.bw_total::.cpu3.data           47942                       # Total bandwidth to/from this memory (bytes/s)
system.mem_ctrls.bw_total::.pci_ide               336                       # Total bandwidth to/from this memory (bytes/s)
system.mem_ctrls.bw_total::total               855836                       # Total bandwidth to/from this memory (bytes/s)
system.mem_ctrls.priorityMinLatency      0.000000000000                       # per QoS priority minimum request to response latency (s)
system.mem_ctrls.priorityMaxLatency      0.000000000000                       # per QoS priority maximum request to response latency (s)
system.mem_ctrls.numReadWriteTurnArounds            0                       # Number of turnarounds from READ to WRITE
system.mem_ctrls.numWriteReadTurnArounds            0                       # Number of turnarounds from WRITE to READ
system.mem_ctrls.numStayReadState                   0                       # Number of times bus staying in READ state
system.mem_ctrls.numStayWriteState                  0                       # Number of times bus staying in WRITE state
system.mem_ctrls.readReqs                           0                       # Number of read requests accepted
system.mem_ctrls.writeReqs                          0                       # Number of write requests accepted
system.mem_ctrls.readBursts                         0                       # Number of DRAM read bursts, including those serviced by the write queue
system.mem_ctrls.writeBursts                        0                       # Number of DRAM write bursts, including those merged in the write queue
system.mem_ctrls.bytesReadDRAM                      0                       # Total number of bytes read from DRAM
system.mem_ctrls.bytesReadWrQ                       0                       # Total number of bytes read from write queue
system.mem_ctrls.bytesWritten                       0                       # Total number of bytes written to DRAM
system.mem_ctrls.bytesReadSys                       0                       # Total read bytes from the system interface side
system.mem_ctrls.bytesWrittenSys                    0                       # Total written bytes from the system interface side
system.mem_ctrls.servicedByWrQ                      0                       # Number of DRAM read bursts serviced by the write queue
system.mem_ctrls.mergedWrBursts                     0                       # Number of DRAM write bursts merged with an existing one
system.mem_ctrls.neitherReadNorWriteReqs            0                       # Number of requests that are neither read nor write
system.mem_ctrls.perBankRdBursts::0                 0                       # Per bank write bursts
system.mem_ctrls.perBankRdBursts::1                 0                       # Per bank write bursts
system.mem_ctrls.perBankRdBursts::2                 0                       # Per bank write bursts
system.mem_ctrls.perBankRdBursts::3                 0                       # Per bank write bursts
system.mem_ctrls.perBankRdBursts::4                 0                       # Per bank write bursts
system.mem_ctrls.perBankRdBursts::5                 0                       # Per bank write bursts
system.mem_ctrls.perBankRdBursts::6                 0                       # Per bank write bursts
system.mem_ctrls.perBankRdBursts::7                 0                       # Per bank write bursts
system.mem_ctrls.perBankRdBursts::8                 0                       # Per bank write bursts
system.mem_ctrls.perBankRdBursts::9                 0                       # Per bank write bursts
system.mem_ctrls.perBankRdBursts::10                0                       # Per bank write bursts
system.mem_ctrls.perBankRdBursts::11                0                       # Per bank write bursts
system.mem_ctrls.perBankRdBursts::12                0                       # Per bank write bursts
system.mem_ctrls.perBankRdBursts::13                0                       # Per bank write bursts
system.mem_ctrls.perBankRdBursts::14                0                       # Per bank write bursts
system.mem_ctrls.perBankRdBursts::15                0                       # Per bank write bursts
system.mem_ctrls.perBankRdBursts::16                0                       # Per bank write bursts
system.mem_ctrls.perBankRdBursts::17                0                       # Per bank write bursts
system.mem_ctrls.perBankRdBursts::18                0                       # Per bank write bursts
system.mem_ctrls.perBankRdBursts::19                0                       # Per bank write bursts
system.mem_ctrls.perBankRdBursts::20                0                       # Per bank write bursts
system.mem_ctrls.perBankRdBursts::21                0                       # Per bank write bursts
system.mem_ctrls.perBankRdBursts::22                0                       # Per bank write bursts
system.mem_ctrls.perBankRdBursts::23                0                       # Per bank write bursts
system.mem_ctrls.perBankRdBursts::24                0                       # Per bank write bursts
system.mem_ctrls.perBankRdBursts::25                0                       # Per bank write bursts
system.mem_ctrls.perBankRdBursts::26                0                       # Per bank write bursts
system.mem_ctrls.perBankRdBursts::27                0                       # Per bank write bursts
system.mem_ctrls.perBankRdBursts::28                0                       # Per bank write bursts
system.mem_ctrls.perBankRdBursts::29                0                       # Per bank write bursts
system.mem_ctrls.perBankRdBursts::30                0                       # Per bank write bursts
system.mem_ctrls.perBankRdBursts::31                0                       # Per bank write bursts
system.mem_ctrls.perBankWrBursts::0                 0                       # Per bank write bursts
system.mem_ctrls.perBankWrBursts::1                 0                       # Per bank write bursts
system.mem_ctrls.perBankWrBursts::2                 0                       # Per bank write bursts
system.mem_ctrls.perBankWrBursts::3                 0                       # Per bank write bursts
system.mem_ctrls.perBankWrBursts::4                 0                       # Per bank write bursts
system.mem_ctrls.perBankWrBursts::5                 0                       # Per bank write bursts
system.mem_ctrls.perBankWrBursts::6                 0                       # Per bank write bursts
system.mem_ctrls.perBankWrBursts::7                 0                       # Per bank write bursts
system.mem_ctrls.perBankWrBursts::8                 0                       # Per bank write bursts
system.mem_ctrls.perBankWrBursts::9                 0                       # Per bank write bursts
system.mem_ctrls.perBankWrBursts::10                0                       # Per bank write bursts
system.mem_ctrls.perBankWrBursts::11                0                       # Per bank write bursts
system.mem_ctrls.perBankWrBursts::12                0                       # Per bank write bursts
system.mem_ctrls.perBankWrBursts::13                0                       # Per bank write bursts
system.mem_ctrls.perBankWrBursts::14                0                       # Per bank write bursts
system.mem_ctrls.perBankWrBursts::15                0                       # Per bank write bursts
system.mem_ctrls.perBankWrBursts::16                0                       # Per bank write bursts
system.mem_ctrls.perBankWrBursts::17                0                       # Per bank write bursts
system.mem_ctrls.perBankWrBursts::18                0                       # Per bank write bursts
system.mem_ctrls.perBankWrBursts::19                0                       # Per bank write bursts
system.mem_ctrls.perBankWrBursts::20                0                       # Per bank write bursts
system.mem_ctrls.perBankWrBursts::21                0                       # Per bank write bursts
system.mem_ctrls.perBankWrBursts::22                0                       # Per bank write bursts
system.mem_ctrls.perBankWrBursts::23                0                       # Per bank write bursts
system.mem_ctrls.perBankWrBursts::24                0                       # Per bank write bursts
system.mem_ctrls.perBankWrBursts::25                0                       # Per bank write bursts
system.mem_ctrls.perBankWrBursts::26                0                       # Per bank write bursts
system.mem_ctrls.perBankWrBursts::27                0                       # Per bank write bursts
system.mem_ctrls.perBankWrBursts::28                0                       # Per bank write bursts
system.mem_ctrls.perBankWrBursts::29                0                       # Per bank write bursts
system.mem_ctrls.perBankWrBursts::30                0                       # Per bank write bursts
system.mem_ctrls.perBankWrBursts::31                0                       # Per bank write bursts
system.mem_ctrls.numRdRetry                         0                       # Number of times read queue was full causing retry
system.mem_ctrls.numWrRetry                         0                       # Number of times write queue was full causing retry
system.mem_ctrls.totGap                             0                       # Total gap between requests
system.mem_ctrls.readPktSize::0                     0                       # Read request sizes (log2)
system.mem_ctrls.readPktSize::1                     0                       # Read request sizes (log2)
system.mem_ctrls.readPktSize::2                     0                       # Read request sizes (log2)
system.mem_ctrls.readPktSize::3                     0                       # Read request sizes (log2)
system.mem_ctrls.readPktSize::4                     0                       # Read request sizes (log2)
system.mem_ctrls.readPktSize::5                     0                       # Read request sizes (log2)
system.mem_ctrls.readPktSize::6                     0                       # Read request sizes (log2)
system.mem_ctrls.writePktSize::0                    0                       # Write request sizes (log2)
system.mem_ctrls.writePktSize::1                    0                       # Write request sizes (log2)
system.mem_ctrls.writePktSize::2                    0                       # Write request sizes (log2)
system.mem_ctrls.writePktSize::3                    0                       # Write request sizes (log2)
system.mem_ctrls.writePktSize::4                    0                       # Write request sizes (log2)
system.mem_ctrls.writePktSize::5                    0                       # Write request sizes (log2)
system.mem_ctrls.writePktSize::6                    0                       # Write request sizes (log2)
system.mem_ctrls.rdQLenPdf::0                       0                       # What read queue length does an incoming req see
system.mem_ctrls.rdQLenPdf::1                       0                       # What read queue length does an incoming req see
system.mem_ctrls.rdQLenPdf::2                       0                       # What read queue length does an incoming req see
system.mem_ctrls.rdQLenPdf::3                       0                       # What read queue length does an incoming req see
system.mem_ctrls.rdQLenPdf::4                       0                       # What read queue length does an incoming req see
system.mem_ctrls.rdQLenPdf::5                       0                       # What read queue length does an incoming req see
system.mem_ctrls.rdQLenPdf::6                       0                       # What read queue length does an incoming req see
system.mem_ctrls.rdQLenPdf::7                       0                       # What read queue length does an incoming req see
system.mem_ctrls.rdQLenPdf::8                       0                       # What read queue length does an incoming req see
system.mem_ctrls.rdQLenPdf::9                       0                       # What read queue length does an incoming req see
system.mem_ctrls.rdQLenPdf::10                      0                       # What read queue length does an incoming req see
system.mem_ctrls.rdQLenPdf::11                      0                       # What read queue length does an incoming req see
system.mem_ctrls.rdQLenPdf::12                      0                       # What read queue length does an incoming req see
system.mem_ctrls.rdQLenPdf::13                      0                       # What read queue length does an incoming req see
system.mem_ctrls.rdQLenPdf::14                      0                       # What read queue length does an incoming req see
system.mem_ctrls.rdQLenPdf::15                      0                       # What read queue length does an incoming req see
system.mem_ctrls.rdQLenPdf::16                      0                       # What read queue length does an incoming req see
system.mem_ctrls.rdQLenPdf::17                      0                       # What read queue length does an incoming req see
system.mem_ctrls.rdQLenPdf::18                      0                       # What read queue length does an incoming req see
system.mem_ctrls.rdQLenPdf::19                      0                       # What read queue length does an incoming req see
system.mem_ctrls.rdQLenPdf::20                      0                       # What read queue length does an incoming req see
system.mem_ctrls.rdQLenPdf::21                      0                       # What read queue length does an incoming req see
system.mem_ctrls.rdQLenPdf::22                      0                       # What read queue length does an incoming req see
system.mem_ctrls.rdQLenPdf::23                      0                       # What read queue length does an incoming req see
system.mem_ctrls.rdQLenPdf::24                      0                       # What read queue length does an incoming req see
system.mem_ctrls.rdQLenPdf::25                      0                       # What read queue length does an incoming req see
system.mem_ctrls.rdQLenPdf::26                      0                       # What read queue length does an incoming req see
system.mem_ctrls.rdQLenPdf::27                      0                       # What read queue length does an incoming req see
system.mem_ctrls.rdQLenPdf::28                      0                       # What read queue length does an incoming req see
system.mem_ctrls.rdQLenPdf::29                      0                       # What read queue length does an incoming req see
system.mem_ctrls.rdQLenPdf::30                      0                       # What read queue length does an incoming req see
system.mem_ctrls.rdQLenPdf::31                      0                       # What read queue length does an incoming req see
system.mem_ctrls.rdQLenPdf::32                      0                       # What read queue length does an incoming req see
system.mem_ctrls.rdQLenPdf::33                      0                       # What read queue length does an incoming req see
system.mem_ctrls.rdQLenPdf::34                      0                       # What read queue length does an incoming req see
system.mem_ctrls.rdQLenPdf::35                      0                       # What read queue length does an incoming req see
system.mem_ctrls.rdQLenPdf::36                      0                       # What read queue length does an incoming req see
system.mem_ctrls.rdQLenPdf::37                      0                       # What read queue length does an incoming req see
system.mem_ctrls.rdQLenPdf::38                      0                       # What read queue length does an incoming req see
system.mem_ctrls.rdQLenPdf::39                      0                       # What read queue length does an incoming req see
system.mem_ctrls.rdQLenPdf::40                      0                       # What read queue length does an incoming req see
system.mem_ctrls.rdQLenPdf::41                      0                       # What read queue length does an incoming req see
system.mem_ctrls.rdQLenPdf::42                      0                       # What read queue length does an incoming req see
system.mem_ctrls.rdQLenPdf::43                      0                       # What read queue length does an incoming req see
system.mem_ctrls.rdQLenPdf::44                      0                       # What read queue length does an incoming req see
system.mem_ctrls.rdQLenPdf::45                      0                       # What read queue length does an incoming req see
system.mem_ctrls.rdQLenPdf::46                      0                       # What read queue length does an incoming req see
system.mem_ctrls.rdQLenPdf::47                      0                       # What read queue length does an incoming req see
system.mem_ctrls.rdQLenPdf::48                      0                       # What read queue length does an incoming req see
system.mem_ctrls.rdQLenPdf::49                      0                       # What read queue length does an incoming req see
system.mem_ctrls.rdQLenPdf::50                      0                       # What read queue length does an incoming req see
system.mem_ctrls.rdQLenPdf::51                      0                       # What read queue length does an incoming req see
system.mem_ctrls.rdQLenPdf::52                      0                       # What read queue length does an incoming req see
system.mem_ctrls.rdQLenPdf::53                      0                       # What read queue length does an incoming req see
system.mem_ctrls.rdQLenPdf::54                      0                       # What read queue length does an incoming req see
system.mem_ctrls.rdQLenPdf::55                      0                       # What read queue length does an incoming req see
system.mem_ctrls.rdQLenPdf::56                      0                       # What read queue length does an incoming req see
system.mem_ctrls.rdQLenPdf::57                      0                       # What read queue length does an incoming req see
system.mem_ctrls.rdQLenPdf::58                      0                       # What read queue length does an incoming req see
system.mem_ctrls.rdQLenPdf::59                      0                       # What read queue length does an incoming req see
system.mem_ctrls.rdQLenPdf::60                      0                       # What read queue length does an incoming req see
system.mem_ctrls.rdQLenPdf::61                      0                       # What read queue length does an incoming req see
system.mem_ctrls.rdQLenPdf::62                      0                       # What read queue length does an incoming req see
system.mem_ctrls.rdQLenPdf::63                      0                       # What read queue length does an incoming req see
system.mem_ctrls.wrQLenPdf::0                       0                       # What write queue length does an incoming req see
system.mem_ctrls.wrQLenPdf::1                       0                       # What write queue length does an incoming req see
system.mem_ctrls.wrQLenPdf::2                       0                       # What write queue length does an incoming req see
system.mem_ctrls.wrQLenPdf::3                       0                       # What write queue length does an incoming req see
system.mem_ctrls.wrQLenPdf::4                       0                       # What write queue length does an incoming req see
system.mem_ctrls.wrQLenPdf::5                       0                       # What write queue length does an incoming req see
system.mem_ctrls.wrQLenPdf::6                       0                       # What write queue length does an incoming req see
system.mem_ctrls.wrQLenPdf::7                       0                       # What write queue length does an incoming req see
system.mem_ctrls.wrQLenPdf::8                       0                       # What write queue length does an incoming req see
system.mem_ctrls.wrQLenPdf::9                       0                       # What write queue length does an incoming req see
system.mem_ctrls.wrQLenPdf::10                      0                       # What write queue length does an incoming req see
system.mem_ctrls.wrQLenPdf::11                      0                       # What write queue length does an incoming req see
system.mem_ctrls.wrQLenPdf::12                      0                       # What write queue length does an incoming req see
system.mem_ctrls.wrQLenPdf::13                      0                       # What write queue length does an incoming req see
system.mem_ctrls.wrQLenPdf::14                      0                       # What write queue length does an incoming req see
system.mem_ctrls.wrQLenPdf::15                      0                       # What write queue length does an incoming req see
system.mem_ctrls.wrQLenPdf::16                      0                       # What write queue length does an incoming req see
system.mem_ctrls.wrQLenPdf::17                      0                       # What write queue length does an incoming req see
system.mem_ctrls.wrQLenPdf::18                      0                       # What write queue length does an incoming req see
system.mem_ctrls.wrQLenPdf::19                      0                       # What write queue length does an incoming req see
system.mem_ctrls.wrQLenPdf::20                      0                       # What write queue length does an incoming req see
system.mem_ctrls.wrQLenPdf::21                      0                       # What write queue length does an incoming req see
system.mem_ctrls.wrQLenPdf::22                      0                       # What write queue length does an incoming req see
system.mem_ctrls.wrQLenPdf::23                      0                       # What write queue length does an incoming req see
system.mem_ctrls.wrQLenPdf::24                      0                       # What write queue length does an incoming req see
system.mem_ctrls.wrQLenPdf::25                      0                       # What write queue length does an incoming req see
system.mem_ctrls.wrQLenPdf::26                      0                       # What write queue length does an incoming req see
system.mem_ctrls.wrQLenPdf::27                      0                       # What write queue length does an incoming req see
system.mem_ctrls.wrQLenPdf::28                      0                       # What write queue length does an incoming req see
system.mem_ctrls.wrQLenPdf::29                      0                       # What write queue length does an incoming req see
system.mem_ctrls.wrQLenPdf::30                      0                       # What write queue length does an incoming req see
system.mem_ctrls.wrQLenPdf::31                      0                       # What write queue length does an incoming req see
system.mem_ctrls.wrQLenPdf::32                      0                       # What write queue length does an incoming req see
system.mem_ctrls.wrQLenPdf::33                      0                       # What write queue length does an incoming req see
system.mem_ctrls.wrQLenPdf::34                      0                       # What write queue length does an incoming req see
system.mem_ctrls.wrQLenPdf::35                      0                       # What write queue length does an incoming req see
system.mem_ctrls.wrQLenPdf::36                      0                       # What write queue length does an incoming req see
system.mem_ctrls.wrQLenPdf::37                      0                       # What write queue length does an incoming req see
system.mem_ctrls.wrQLenPdf::38                      0                       # What write queue length does an incoming req see
system.mem_ctrls.wrQLenPdf::39                      0                       # What write queue length does an incoming req see
system.mem_ctrls.wrQLenPdf::40                      0                       # What write queue length does an incoming req see
system.mem_ctrls.wrQLenPdf::41                      0                       # What write queue length does an incoming req see
system.mem_ctrls.wrQLenPdf::42                      0                       # What write queue length does an incoming req see
system.mem_ctrls.wrQLenPdf::43                      0                       # What write queue length does an incoming req see
system.mem_ctrls.wrQLenPdf::44                      0                       # What write queue length does an incoming req see
system.mem_ctrls.wrQLenPdf::45                      0                       # What write queue length does an incoming req see
system.mem_ctrls.wrQLenPdf::46                      0                       # What write queue length does an incoming req see
system.mem_ctrls.wrQLenPdf::47                      0                       # What write queue length does an incoming req see
system.mem_ctrls.wrQLenPdf::48                      0                       # What write queue length does an incoming req see
system.mem_ctrls.wrQLenPdf::49                      0                       # What write queue length does an incoming req see
system.mem_ctrls.wrQLenPdf::50                      0                       # What write queue length does an incoming req see
system.mem_ctrls.wrQLenPdf::51                      0                       # What write queue length does an incoming req see
system.mem_ctrls.wrQLenPdf::52                      0                       # What write queue length does an incoming req see
system.mem_ctrls.wrQLenPdf::53                      0                       # What write queue length does an incoming req see
system.mem_ctrls.wrQLenPdf::54                      0                       # What write queue length does an incoming req see
system.mem_ctrls.wrQLenPdf::55                      0                       # What write queue length does an incoming req see
system.mem_ctrls.wrQLenPdf::56                      0                       # What write queue length does an incoming req see
system.mem_ctrls.wrQLenPdf::57                      0                       # What write queue length does an incoming req see
system.mem_ctrls.wrQLenPdf::58                      0                       # What write queue length does an incoming req see
system.mem_ctrls.wrQLenPdf::59                      0                       # What write queue length does an incoming req see
system.mem_ctrls.wrQLenPdf::60                      0                       # What write queue length does an incoming req see
system.mem_ctrls.wrQLenPdf::61                      0                       # What write queue length does an incoming req see
system.mem_ctrls.wrQLenPdf::62                      0                       # What write queue length does an incoming req see
system.mem_ctrls.wrQLenPdf::63                      0                       # What write queue length does an incoming req see
system.mem_ctrls.wrQLenPdf::64                      0                       # What write queue length does an incoming req see
system.mem_ctrls.wrQLenPdf::65                      0                       # What write queue length does an incoming req see
system.mem_ctrls.wrQLenPdf::66                      0                       # What write queue length does an incoming req see
system.mem_ctrls.wrQLenPdf::67                      0                       # What write queue length does an incoming req see
system.mem_ctrls.wrQLenPdf::68                      0                       # What write queue length does an incoming req see
system.mem_ctrls.wrQLenPdf::69                      0                       # What write queue length does an incoming req see
system.mem_ctrls.wrQLenPdf::70                      0                       # What write queue length does an incoming req see
system.mem_ctrls.wrQLenPdf::71                      0                       # What write queue length does an incoming req see
system.mem_ctrls.wrQLenPdf::72                      0                       # What write queue length does an incoming req see
system.mem_ctrls.wrQLenPdf::73                      0                       # What write queue length does an incoming req see
system.mem_ctrls.wrQLenPdf::74                      0                       # What write queue length does an incoming req see
system.mem_ctrls.wrQLenPdf::75                      0                       # What write queue length does an incoming req see
system.mem_ctrls.wrQLenPdf::76                      0                       # What write queue length does an incoming req see
system.mem_ctrls.wrQLenPdf::77                      0                       # What write queue length does an incoming req see
system.mem_ctrls.wrQLenPdf::78                      0                       # What write queue length does an incoming req see
system.mem_ctrls.wrQLenPdf::79                      0                       # What write queue length does an incoming req see
system.mem_ctrls.wrQLenPdf::80                      0                       # What write queue length does an incoming req see
system.mem_ctrls.wrQLenPdf::81                      0                       # What write queue length does an incoming req see
system.mem_ctrls.wrQLenPdf::82                      0                       # What write queue length does an incoming req see
system.mem_ctrls.wrQLenPdf::83                      0                       # What write queue length does an incoming req see
system.mem_ctrls.wrQLenPdf::84                      0                       # What write queue length does an incoming req see
system.mem_ctrls.wrQLenPdf::85                      0                       # What write queue length does an incoming req see
system.mem_ctrls.wrQLenPdf::86                      0                       # What write queue length does an incoming req see
system.mem_ctrls.wrQLenPdf::87                      0                       # What write queue length does an incoming req see
system.mem_ctrls.wrQLenPdf::88                      0                       # What write queue length does an incoming req see
system.mem_ctrls.wrQLenPdf::89                      0                       # What write queue length does an incoming req see
system.mem_ctrls.wrQLenPdf::90                      0                       # What write queue length does an incoming req see
system.mem_ctrls.wrQLenPdf::91                      0                       # What write queue length does an incoming req see
system.mem_ctrls.wrQLenPdf::92                      0                       # What write queue length does an incoming req see
system.mem_ctrls.wrQLenPdf::93                      0                       # What write queue length does an incoming req see
system.mem_ctrls.wrQLenPdf::94                      0                       # What write queue length does an incoming req see
system.mem_ctrls.wrQLenPdf::95                      0                       # What write queue length does an incoming req see
system.mem_ctrls.wrQLenPdf::96                      0                       # What write queue length does an incoming req see
system.mem_ctrls.wrQLenPdf::97                      0                       # What write queue length does an incoming req see
system.mem_ctrls.wrQLenPdf::98                      0                       # What write queue length does an incoming req see
system.mem_ctrls.wrQLenPdf::99                      0                       # What write queue length does an incoming req see
system.mem_ctrls.wrQLenPdf::100                     0                       # What write queue length does an incoming req see
system.mem_ctrls.wrQLenPdf::101                     0                       # What write queue length does an incoming req see
system.mem_ctrls.wrQLenPdf::102                     0                       # What write queue length does an incoming req see
system.mem_ctrls.wrQLenPdf::103                     0                       # What write queue length does an incoming req see
system.mem_ctrls.wrQLenPdf::104                     0                       # What write queue length does an incoming req see
system.mem_ctrls.wrQLenPdf::105                     0                       # What write queue length does an incoming req see
system.mem_ctrls.wrQLenPdf::106                     0                       # What write queue length does an incoming req see
system.mem_ctrls.wrQLenPdf::107                     0                       # What write queue length does an incoming req see
system.mem_ctrls.wrQLenPdf::108                     0                       # What write queue length does an incoming req see
system.mem_ctrls.wrQLenPdf::109                     0                       # What write queue length does an incoming req see
system.mem_ctrls.wrQLenPdf::110                     0                       # What write queue length does an incoming req see
system.mem_ctrls.wrQLenPdf::111                     0                       # What write queue length does an incoming req see
system.mem_ctrls.wrQLenPdf::112                     0                       # What write queue length does an incoming req see
system.mem_ctrls.wrQLenPdf::113                     0                       # What write queue length does an incoming req see
system.mem_ctrls.wrQLenPdf::114                     0                       # What write queue length does an incoming req see
system.mem_ctrls.wrQLenPdf::115                     0                       # What write queue length does an incoming req see
system.mem_ctrls.wrQLenPdf::116                     0                       # What write queue length does an incoming req see
system.mem_ctrls.wrQLenPdf::117                     0                       # What write queue length does an incoming req see
system.mem_ctrls.wrQLenPdf::118                     0                       # What write queue length does an incoming req see
system.mem_ctrls.wrQLenPdf::119                     0                       # What write queue length does an incoming req see
system.mem_ctrls.wrQLenPdf::120                     0                       # What write queue length does an incoming req see
system.mem_ctrls.wrQLenPdf::121                     0                       # What write queue length does an incoming req see
system.mem_ctrls.wrQLenPdf::122                     0                       # What write queue length does an incoming req see
system.mem_ctrls.wrQLenPdf::123                     0                       # What write queue length does an incoming req see
system.mem_ctrls.wrQLenPdf::124                     0                       # What write queue length does an incoming req see
system.mem_ctrls.wrQLenPdf::125                     0                       # What write queue length does an incoming req see
system.mem_ctrls.wrQLenPdf::126                     0                       # What write queue length does an incoming req see
system.mem_ctrls.wrQLenPdf::127                     0                       # What write queue length does an incoming req see
system.mem_ctrls.totQLat                            0                       # Total ticks spent queuing
system.mem_ctrls.totMemAccLat                       0                       # Total ticks spent from burst creation until serviced by the DRAM
system.mem_ctrls.totBusLat                          0                       # Total ticks spent in databus transfers
system.mem_ctrls.avgQLat                          nan                       # Average queueing delay per DRAM burst
system.mem_ctrls.avgBusLat                        nan                       # Average bus latency per DRAM burst
system.mem_ctrls.avgMemAccLat                     nan                       # Average memory access latency per DRAM burst
system.mem_ctrls.avgRdBW                         0.00                       # Average DRAM read bandwidth in MiByte/s
system.mem_ctrls.avgWrBW                         0.00                       # Average achieved write bandwidth in MiByte/s
system.mem_ctrls.avgRdBWSys                      0.00                       # Average system read bandwidth in MiByte/s
system.mem_ctrls.avgWrBWSys                      0.00                       # Average system write bandwidth in MiByte/s
system.mem_ctrls.peakBW                      19207.00                       # Theoretical peak bandwidth in MiByte/s
system.mem_ctrls.busUtil                         0.00                       # Data bus utilization in percentage
system.mem_ctrls.busUtilRead                     0.00                       # Data bus utilization in percentage for reads
system.mem_ctrls.busUtilWrite                    0.00                       # Data bus utilization in percentage for writes
system.mem_ctrls.avgRdQLen                       0.00                       # Average read queue length when enqueuing
system.mem_ctrls.avgWrQLen                       0.00                       # Average write queue length when enqueuing
system.mem_ctrls.readRowHits                        0                       # Number of row buffer hits during reads
system.mem_ctrls.writeRowHits                       0                       # Number of row buffer hits during writes
system.mem_ctrls.readRowHitRate                   nan                       # Row buffer hit rate for reads
system.mem_ctrls.writeRowHitRate                  nan                       # Row buffer hit rate for writes
system.mem_ctrls.avgGap                           nan                       # Average gap between requests
system.mem_ctrls.pageHitRate                      nan                       # Row buffer hit rate, read and write combined
system.mem_ctrls_0.actEnergy                        0                       # Energy for activate commands per rank (pJ)
system.mem_ctrls_0.preEnergy                        0                       # Energy for precharge commands per rank (pJ)
system.mem_ctrls_0.readEnergy                       0                       # Energy for read commands per rank (pJ)
system.mem_ctrls_0.writeEnergy                      0                       # Energy for write commands per rank (pJ)
system.mem_ctrls_0.refreshEnergy                    0                       # Energy for refresh commands per rank (pJ)
system.mem_ctrls_0.actBackEnergy                    0                       # Energy for active background per rank (pJ)
system.mem_ctrls_0.preBackEnergy         252199707236612.906250                       # Energy for precharge background per rank (pJ)
system.mem_ctrls_0.actPowerDownEnergy               0                       # Energy for active power-down per rank (pJ)
system.mem_ctrls_0.prePowerDownEnergy               0                       # Energy for precharge power-down per rank (pJ)
system.mem_ctrls_0.selfRefreshEnergy                0                       # Energy for self refresh per rank (pJ)
system.mem_ctrls_0.totalEnergy           252199707236612.906250                       # Total energy per rank (pJ)
system.mem_ctrls_0.averagePower            163.200000                       # Core power per rank (mW)
system.mem_ctrls_0.totalIdleTime                    0                       # Total Idle time Per DRAM Rank
system.mem_ctrls_0.memoryStateTime::IDLE 1545341343361500                       # Time in different power states
system.mem_ctrls_0.memoryStateTime::REF             0                       # Time in different power states
system.mem_ctrls_0.memoryStateTime::SREF            0                       # Time in different power states
system.mem_ctrls_0.memoryStateTime::PRE_PDN            0                       # Time in different power states
system.mem_ctrls_0.memoryStateTime::ACT             0                       # Time in different power states
system.mem_ctrls_0.memoryStateTime::ACT_PDN            0                       # Time in different power states
system.mem_ctrls_1.actEnergy                        0                       # Energy for activate commands per rank (pJ)
system.mem_ctrls_1.preEnergy                        0                       # Energy for precharge commands per rank (pJ)
system.mem_ctrls_1.readEnergy                       0                       # Energy for read commands per rank (pJ)
system.mem_ctrls_1.writeEnergy                      0                       # Energy for write commands per rank (pJ)
system.mem_ctrls_1.refreshEnergy                    0                       # Energy for refresh commands per rank (pJ)
system.mem_ctrls_1.actBackEnergy                    0                       # Energy for active background per rank (pJ)
system.mem_ctrls_1.preBackEnergy         252199707236612.906250                       # Energy for precharge background per rank (pJ)
system.mem_ctrls_1.actPowerDownEnergy               0                       # Energy for active power-down per rank (pJ)
system.mem_ctrls_1.prePowerDownEnergy               0                       # Energy for precharge power-down per rank (pJ)
system.mem_ctrls_1.selfRefreshEnergy                0                       # Energy for self refresh per rank (pJ)
system.mem_ctrls_1.totalEnergy           252199707236612.906250                       # Total energy per rank (pJ)
system.mem_ctrls_1.averagePower            163.200000                       # Core power per rank (mW)
system.mem_ctrls_1.totalIdleTime                    0                       # Total Idle time Per DRAM Rank
system.mem_ctrls_1.memoryStateTime::IDLE 1545341343361500                       # Time in different power states
system.mem_ctrls_1.memoryStateTime::REF             0                       # Time in different power states
system.mem_ctrls_1.memoryStateTime::SREF            0                       # Time in different power states
system.mem_ctrls_1.memoryStateTime::PRE_PDN            0                       # Time in different power states
system.mem_ctrls_1.memoryStateTime::ACT             0                       # Time in different power states
system.mem_ctrls_1.memoryStateTime::ACT_PDN            0                       # Time in different power states
system.mem_ctrls_2.actEnergy                        0                       # Energy for activate commands per rank (pJ)
system.mem_ctrls_2.preEnergy                        0                       # Energy for precharge commands per rank (pJ)
system.mem_ctrls_2.readEnergy                       0                       # Energy for read commands per rank (pJ)
system.mem_ctrls_2.writeEnergy                      0                       # Energy for write commands per rank (pJ)
system.mem_ctrls_2.refreshEnergy                    0                       # Energy for refresh commands per rank (pJ)
system.mem_ctrls_2.actBackEnergy                    0                       # Energy for active background per rank (pJ)
system.mem_ctrls_2.preBackEnergy         252199707236612.906250                       # Energy for precharge background per rank (pJ)
system.mem_ctrls_2.actPowerDownEnergy               0                       # Energy for active power-down per rank (pJ)
system.mem_ctrls_2.prePowerDownEnergy               0                       # Energy for precharge power-down per rank (pJ)
system.mem_ctrls_2.selfRefreshEnergy                0                       # Energy for self refresh per rank (pJ)
system.mem_ctrls_2.totalEnergy           252199707236612.906250                       # Total energy per rank (pJ)
system.mem_ctrls_2.averagePower            163.200000                       # Core power per rank (mW)
system.mem_ctrls_2.totalIdleTime                    0                       # Total Idle time Per DRAM Rank
system.mem_ctrls_2.memoryStateTime::IDLE 1545341343361500                       # Time in different power states
system.mem_ctrls_2.memoryStateTime::REF             0                       # Time in different power states
system.mem_ctrls_2.memoryStateTime::SREF            0                       # Time in different power states
system.mem_ctrls_2.memoryStateTime::PRE_PDN            0                       # Time in different power states
system.mem_ctrls_2.memoryStateTime::ACT             0                       # Time in different power states
system.mem_ctrls_2.memoryStateTime::ACT_PDN            0                       # Time in different power states
system.mem_ctrls_3.actEnergy                        0                       # Energy for activate commands per rank (pJ)
system.mem_ctrls_3.preEnergy                        0                       # Energy for precharge commands per rank (pJ)
system.mem_ctrls_3.readEnergy                       0                       # Energy for read commands per rank (pJ)
system.mem_ctrls_3.writeEnergy                      0                       # Energy for write commands per rank (pJ)
system.mem_ctrls_3.refreshEnergy                    0                       # Energy for refresh commands per rank (pJ)
system.mem_ctrls_3.actBackEnergy                    0                       # Energy for active background per rank (pJ)
system.mem_ctrls_3.preBackEnergy         252199707236612.906250                       # Energy for precharge background per rank (pJ)
system.mem_ctrls_3.actPowerDownEnergy               0                       # Energy for active power-down per rank (pJ)
system.mem_ctrls_3.prePowerDownEnergy               0                       # Energy for precharge power-down per rank (pJ)
system.mem_ctrls_3.selfRefreshEnergy                0                       # Energy for self refresh per rank (pJ)
system.mem_ctrls_3.totalEnergy           252199707236612.906250                       # Total energy per rank (pJ)
system.mem_ctrls_3.averagePower            163.200000                       # Core power per rank (mW)
system.mem_ctrls_3.totalIdleTime                    0                       # Total Idle time Per DRAM Rank
system.mem_ctrls_3.memoryStateTime::IDLE 1545341343361500                       # Time in different power states
system.mem_ctrls_3.memoryStateTime::REF             0                       # Time in different power states
system.mem_ctrls_3.memoryStateTime::SREF            0                       # Time in different power states
system.mem_ctrls_3.memoryStateTime::PRE_PDN            0                       # Time in different power states
system.mem_ctrls_3.memoryStateTime::ACT             0                       # Time in different power states
system.mem_ctrls_3.memoryStateTime::ACT_PDN            0                       # Time in different power states
system.pwrStateResidencyTicks::UNDEFINED 1545341343361500                       # Cumulative time (in ticks) in various power states
system.bridge.pwrStateResidencyTicks::UNDEFINED 1545341343361500                       # Cumulative time (in ticks) in various power states
system.cf0.dma_read_full_pages                    262                       # Number of full page size DMA reads (not PRD).
system.cf0.dma_read_bytes                     1077248                       # Number of bytes transfered via DMA reads (not PRD).
system.cf0.dma_read_txs                           264                       # Number of DMA read transactions (not PRD).
system.cf0.dma_write_full_pages                  6283                       # Number of full page size DMA writes.
system.cf0.dma_write_bytes                   25793536                       # Number of bytes transfered via DMA writes.
system.cf0.dma_write_txs                         6312                       # Number of DMA write transactions.
system.cpu_voltage_domain.voltage                   1                       # Voltage in Volts
system.cpu_clk_domain.clock                       500                       # Clock period in ticks
system.cpu0.dstage2_mmu.stage2_tlb.walker.pwrStateResidencyTicks::UNDEFINED 1545341343361500                       # Cumulative time (in ticks) in various power states
system.cpu0.dstage2_mmu.stage2_tlb.walker.walks            0                       # Table walker walks requested
system.cpu0.dstage2_mmu.stage2_tlb.walker.walkRequestOrigin_Requested::Data            0                       # Table walker requests started/completed, data/inst
system.cpu0.dstage2_mmu.stage2_tlb.walker.walkRequestOrigin_Requested::Inst            0                       # Table walker requests started/completed, data/inst
system.cpu0.dstage2_mmu.stage2_tlb.walker.walkRequestOrigin_Requested::total            0                       # Table walker requests started/completed, data/inst
system.cpu0.dstage2_mmu.stage2_tlb.walker.walkRequestOrigin_Completed::Data            0                       # Table walker requests started/completed, data/inst
system.cpu0.dstage2_mmu.stage2_tlb.walker.walkRequestOrigin_Completed::Inst            0                       # Table walker requests started/completed, data/inst
system.cpu0.dstage2_mmu.stage2_tlb.walker.walkRequestOrigin_Completed::total            0                       # Table walker requests started/completed, data/inst
system.cpu0.dstage2_mmu.stage2_tlb.walker.walkRequestOrigin::total            0                       # Table walker requests started/completed, data/inst
system.cpu0.dstage2_mmu.stage2_tlb.inst_hits            0                       # ITB inst hits
system.cpu0.dstage2_mmu.stage2_tlb.inst_misses            0                       # ITB inst misses
system.cpu0.dstage2_mmu.stage2_tlb.read_hits            0                       # DTB read hits
system.cpu0.dstage2_mmu.stage2_tlb.read_misses            0                       # DTB read misses
system.cpu0.dstage2_mmu.stage2_tlb.write_hits            0                       # DTB write hits
system.cpu0.dstage2_mmu.stage2_tlb.write_misses            0                       # DTB write misses
system.cpu0.dstage2_mmu.stage2_tlb.flush_tlb            0                       # Number of times complete TLB was flushed
system.cpu0.dstage2_mmu.stage2_tlb.flush_tlb_mva            0                       # Number of times TLB was flushed by MVA
system.cpu0.dstage2_mmu.stage2_tlb.flush_tlb_mva_asid            0                       # Number of times TLB was flushed by MVA & ASID
system.cpu0.dstage2_mmu.stage2_tlb.flush_tlb_asid            0                       # Number of times TLB was flushed by ASID
system.cpu0.dstage2_mmu.stage2_tlb.flush_entries            0                       # Number of entries that have been flushed from TLB
system.cpu0.dstage2_mmu.stage2_tlb.align_faults            0                       # Number of TLB faults due to alignment restrictions
system.cpu0.dstage2_mmu.stage2_tlb.prefetch_faults            0                       # Number of TLB faults due to prefetch
system.cpu0.dstage2_mmu.stage2_tlb.domain_faults            0                       # Number of TLB faults due to domain restrictions
system.cpu0.dstage2_mmu.stage2_tlb.perms_faults            0                       # Number of TLB faults due to permissions restrictions
system.cpu0.dstage2_mmu.stage2_tlb.read_accesses            0                       # DTB read accesses
system.cpu0.dstage2_mmu.stage2_tlb.write_accesses            0                       # DTB write accesses
system.cpu0.dstage2_mmu.stage2_tlb.inst_accesses            0                       # ITB inst accesses
system.cpu0.dstage2_mmu.stage2_tlb.hits             0                       # DTB hits
system.cpu0.dstage2_mmu.stage2_tlb.misses            0                       # DTB misses
system.cpu0.dstage2_mmu.stage2_tlb.accesses            0                       # DTB accesses
system.cpu0.dtb.walker.pwrStateResidencyTicks::UNDEFINED 1545341343361500                       # Cumulative time (in ticks) in various power states
system.cpu0.dtb.walker.walks                   272356                       # Table walker walks requested
system.cpu0.dtb.walker.walksLong               272356                       # Table walker walks initiated with long descriptors
system.cpu0.dtb.walker.walkWaitTime::samples       272356                       # Table walker wait (enqueue to first request) latency
system.cpu0.dtb.walker.walkWaitTime::0         272356    100.00%    100.00% # Table walker wait (enqueue to first request) latency
system.cpu0.dtb.walker.walkWaitTime::total       272356                       # Table walker wait (enqueue to first request) latency
system.cpu0.dtb.walker.walksPending::samples      3637500                       # Table walker pending requests distribution
system.cpu0.dtb.walker.walksPending::0        3637500    100.00%    100.00% # Table walker pending requests distribution
system.cpu0.dtb.walker.walksPending::total      3637500                       # Table walker pending requests distribution
system.cpu0.dtb.walker.walkPageSizes::4K       250759     94.10%     94.10% # Table walker page sizes translated
system.cpu0.dtb.walker.walkPageSizes::2M        10318      3.87%     97.97% # Table walker page sizes translated
system.cpu0.dtb.walker.walkPageSizes::1G         5405      2.03%    100.00% # Table walker page sizes translated
system.cpu0.dtb.walker.walkPageSizes::total       266482                       # Table walker page sizes translated
system.cpu0.dtb.walker.walkRequestOrigin_Requested::Data       272356                       # Table walker requests started/completed, data/inst
system.cpu0.dtb.walker.walkRequestOrigin_Requested::Inst            0                       # Table walker requests started/completed, data/inst
system.cpu0.dtb.walker.walkRequestOrigin_Requested::total       272356                       # Table walker requests started/completed, data/inst
system.cpu0.dtb.walker.walkRequestOrigin_Completed::Data       266482                       # Table walker requests started/completed, data/inst
system.cpu0.dtb.walker.walkRequestOrigin_Completed::Inst            0                       # Table walker requests started/completed, data/inst
system.cpu0.dtb.walker.walkRequestOrigin_Completed::total       266482                       # Table walker requests started/completed, data/inst
system.cpu0.dtb.walker.walkRequestOrigin::total       538838                       # Table walker requests started/completed, data/inst
system.cpu0.dtb.inst_hits                           0                       # ITB inst hits
system.cpu0.dtb.inst_misses                         0                       # ITB inst misses
system.cpu0.dtb.read_hits                   174335779                       # DTB read hits
system.cpu0.dtb.read_misses                    242687                       # DTB read misses
system.cpu0.dtb.write_hits                  153463789                       # DTB write hits
system.cpu0.dtb.write_misses                    29669                       # DTB write misses
system.cpu0.dtb.flush_tlb                        4603                       # Number of times complete TLB was flushed
system.cpu0.dtb.flush_tlb_mva                       0                       # Number of times TLB was flushed by MVA
system.cpu0.dtb.flush_tlb_mva_asid              35096                       # Number of times TLB was flushed by MVA & ASID
system.cpu0.dtb.flush_tlb_asid                    779                       # Number of times TLB was flushed by ASID
system.cpu0.dtb.flush_entries                   84414                       # Number of entries that have been flushed from TLB
system.cpu0.dtb.align_faults                        0                       # Number of TLB faults due to alignment restrictions
system.cpu0.dtb.prefetch_faults                 19550                       # Number of TLB faults due to prefetch
system.cpu0.dtb.domain_faults                       0                       # Number of TLB faults due to domain restrictions
system.cpu0.dtb.perms_faults                     3573                       # Number of TLB faults due to permissions restrictions
system.cpu0.dtb.read_accesses               174578466                       # DTB read accesses
system.cpu0.dtb.write_accesses              153493458                       # DTB write accesses
system.cpu0.dtb.inst_accesses                       0                       # ITB inst accesses
system.cpu0.dtb.hits                        327799568                       # DTB hits
system.cpu0.dtb.misses                         272356                       # DTB misses
system.cpu0.dtb.accesses                    328071924                       # DTB accesses
system.cpu0.istage2_mmu.stage2_tlb.walker.pwrStateResidencyTicks::UNDEFINED 1545341343361500                       # Cumulative time (in ticks) in various power states
system.cpu0.istage2_mmu.stage2_tlb.walker.walks            0                       # Table walker walks requested
system.cpu0.istage2_mmu.stage2_tlb.walker.walkRequestOrigin_Requested::Data            0                       # Table walker requests started/completed, data/inst
system.cpu0.istage2_mmu.stage2_tlb.walker.walkRequestOrigin_Requested::Inst            0                       # Table walker requests started/completed, data/inst
system.cpu0.istage2_mmu.stage2_tlb.walker.walkRequestOrigin_Requested::total            0                       # Table walker requests started/completed, data/inst
system.cpu0.istage2_mmu.stage2_tlb.walker.walkRequestOrigin_Completed::Data            0                       # Table walker requests started/completed, data/inst
system.cpu0.istage2_mmu.stage2_tlb.walker.walkRequestOrigin_Completed::Inst            0                       # Table walker requests started/completed, data/inst
system.cpu0.istage2_mmu.stage2_tlb.walker.walkRequestOrigin_Completed::total            0                       # Table walker requests started/completed, data/inst
system.cpu0.istage2_mmu.stage2_tlb.walker.walkRequestOrigin::total            0                       # Table walker requests started/completed, data/inst
system.cpu0.istage2_mmu.stage2_tlb.inst_hits            0                       # ITB inst hits
system.cpu0.istage2_mmu.stage2_tlb.inst_misses            0                       # ITB inst misses
system.cpu0.istage2_mmu.stage2_tlb.read_hits            0                       # DTB read hits
system.cpu0.istage2_mmu.stage2_tlb.read_misses            0                       # DTB read misses
system.cpu0.istage2_mmu.stage2_tlb.write_hits            0                       # DTB write hits
system.cpu0.istage2_mmu.stage2_tlb.write_misses            0                       # DTB write misses
system.cpu0.istage2_mmu.stage2_tlb.flush_tlb            0                       # Number of times complete TLB was flushed
system.cpu0.istage2_mmu.stage2_tlb.flush_tlb_mva            0                       # Number of times TLB was flushed by MVA
system.cpu0.istage2_mmu.stage2_tlb.flush_tlb_mva_asid            0                       # Number of times TLB was flushed by MVA & ASID
system.cpu0.istage2_mmu.stage2_tlb.flush_tlb_asid            0                       # Number of times TLB was flushed by ASID
system.cpu0.istage2_mmu.stage2_tlb.flush_entries            0                       # Number of entries that have been flushed from TLB
system.cpu0.istage2_mmu.stage2_tlb.align_faults            0                       # Number of TLB faults due to alignment restrictions
system.cpu0.istage2_mmu.stage2_tlb.prefetch_faults            0                       # Number of TLB faults due to prefetch
system.cpu0.istage2_mmu.stage2_tlb.domain_faults            0                       # Number of TLB faults due to domain restrictions
system.cpu0.istage2_mmu.stage2_tlb.perms_faults            0                       # Number of TLB faults due to permissions restrictions
system.cpu0.istage2_mmu.stage2_tlb.read_accesses            0                       # DTB read accesses
system.cpu0.istage2_mmu.stage2_tlb.write_accesses            0                       # DTB write accesses
system.cpu0.istage2_mmu.stage2_tlb.inst_accesses            0                       # ITB inst accesses
system.cpu0.istage2_mmu.stage2_tlb.hits             0                       # DTB hits
[...]
system.membus.trans_dist::ReadResp            8413495                       # Transaction distribution
system.membus.trans_dist::WriteReq              77221                       # Transaction distribution
system.membus.trans_dist::WriteResp             77221                       # Transaction distribution
system.membus.trans_dist::WritebackDirty      8358392                       # Transaction distribution
system.membus.trans_dist::WriteClean           798228                       # Transaction distribution
system.membus.trans_dist::CleanEvict          5661825                       # Transaction distribution
system.membus.trans_dist::UpgradeReq           235781                       # Transaction distribution
system.membus.trans_dist::SCUpgradeReq           7049                       # Transaction distribution
system.membus.trans_dist::UpgradeResp           17414                       # Transaction distribution
system.membus.trans_dist::ReadExReq           3209758                       # Transaction distribution
system.membus.trans_dist::ReadExResp          3206440                       # Transaction distribution
system.membus.trans_dist::ReadSharedReq       8326915                       # Transaction distribution
system.membus.trans_dist::CleanInvalidReq       971276                       # Transaction distribution
system.membus.trans_dist::CleanInvalidResp       971276                       # Transaction distribution
system.membus.trans_dist::InvalidateReq       3696792                       # Transaction distribution
system.membus.trans_dist::InvalidateResp      3695390                       # Transaction distribution
system.membus.pkt_count_system.iocache.mem_side::system.mem_ctrls.port      1273182                       # Packet count per connected master and slave (bytes)
system.membus.pkt_count_system.iocache.mem_side::total      1273182                       # Packet count per connected master and slave (bytes)
system.membus.pkt_count_system.l2.mem_side::system.bridge.slave       205290                       # Packet count per connected master and slave (bytes)
system.membus.pkt_count_system.l2.mem_side::system.bootmem.port          182                       # Packet count per connected master and slave (bytes)
system.membus.pkt_count_system.l2.mem_side::system.realview.gic.pio       106876                       # Packet count per connected master and slave (bytes)
system.membus.pkt_count_system.l2.mem_side::system.mem_ctrls.port     46225523                       # Packet count per connected master and slave (bytes)
system.membus.pkt_count_system.l2.mem_side::total     46537871                       # Packet count per connected master and slave (bytes)
system.membus.pkt_count::total               47811053                       # Packet count per connected master and slave (bytes)
system.membus.pkt_size_system.iocache.mem_side::system.mem_ctrls.port     27160448                       # Cumulative packet size per connected master and slave (bytes)
system.membus.pkt_size_system.iocache.mem_side::total     27160448                       # Cumulative packet size per connected master and slave (bytes)
system.membus.pkt_size_system.l2.mem_side::system.bridge.slave       172691                       # Cumulative packet size per connected master and slave (bytes)
system.membus.pkt_size_system.l2.mem_side::system.bootmem.port          404                       # Cumulative packet size per connected master and slave (bytes)
system.membus.pkt_size_system.l2.mem_side::system.realview.gic.pio       213752                       # Cumulative packet size per connected master and slave (bytes)
system.membus.pkt_size_system.l2.mem_side::system.mem_ctrls.port   1297039012                       # Cumulative packet size per connected master and slave (bytes)
system.membus.pkt_size_system.l2.mem_side::total   1297425859                       # Cumulative packet size per connected master and slave (bytes)
system.membus.pkt_size::total              1324586307                       # Cumulative packet size per connected master and slave (bytes)
system.membus.snoops                                0                       # Total snoops (count)
system.membus.snoopTraffic                          0                       # Total snoop traffic (bytes)
system.membus.snoop_fanout::samples          16611372                       # Request fanout histogram
system.membus.snoop_fanout::mean             0.001778                       # Request fanout histogram
system.membus.snoop_fanout::stdev            0.042134                       # Request fanout histogram
system.membus.snoop_fanout::underflows              0      0.00%      0.00% # Request fanout histogram
system.membus.snoop_fanout::0                16581830     99.82%     99.82% # Request fanout histogram
system.membus.snoop_fanout::1                   29542      0.18%    100.00% # Request fanout histogram
system.membus.snoop_fanout::2                       0      0.00%    100.00% # Request fanout histogram
system.membus.snoop_fanout::overflows               0      0.00%    100.00% # Request fanout histogram
system.membus.snoop_fanout::min_value               0                       # Request fanout histogram
system.membus.snoop_fanout::max_value               1                       # Request fanout histogram
system.membus.snoop_fanout::total            16611372                       # Request fanout histogram
system.membus.badaddr_responder.pwrStateResidencyTicks::UNDEFINED 1545341343361500                       # Cumulative time (in ticks) in various power states
system.realview.pci_host.pwrStateResidencyTicks::UNDEFINED 1545341343361500                       # Cumulative time (in ticks) in various power states
system.pci_ide.pwrStateResidencyTicks::UNDEFINED 1545341343361500                       # Cumulative time (in ticks) in various power states
system.realview.clock24MHz.voltage_domain.voltage     3.300000                       # Voltage in Volts
system.realview.clock24MHz.clock                41667                       # Clock period in ticks
system.realview.realview_io.pwrStateResidencyTicks::UNDEFINED 1545341343361500                       # Cumulative time (in ticks) in various power states
system.realview.dcc.osc_cpu.clock               16667                       # Clock period in ticks
system.realview.dcc.osc_ddr.clock               25000                       # Clock period in ticks
system.realview.dcc.osc_hsbm.clock              25000                       # Clock period in ticks
system.realview.dcc.osc_pxl.clock               42105                       # Clock period in ticks
system.realview.dcc.osc_smb.clock               20000                       # Clock period in ticks
system.realview.dcc.osc_sys.clock               16667                       # Clock period in ticks
system.realview.energy_ctrl.pwrStateResidencyTicks::UNDEFINED 1545341343361500                       # Cumulative time (in ticks) in various power states
system.realview.generic_timer.pwrStateResidencyTicks::UNDEFINED 1545341343361500                       # Cumulative time (in ticks) in various power states
system.realview.gic.pwrStateResidencyTicks::UNDEFINED 1545341343361500                       # Cumulative time (in ticks) in various power states
system.realview.gicv2m.pwrStateResidencyTicks::UNDEFINED 1545341343361500                       # Cumulative time (in ticks) in various power states
system.realview.hdlcd.pwrStateResidencyTicks::UNDEFINED 1545341343361500                       # Cumulative time (in ticks) in various power states
system.realview.kmi0.pwrStateResidencyTicks::UNDEFINED 1545341343361500                       # Cumulative time (in ticks) in various power states
system.realview.kmi1.pwrStateResidencyTicks::UNDEFINED 1545341343361500                       # Cumulative time (in ticks) in various power states
system.realview.mcc.osc_clcd.clock              42105                       # Clock period in ticks
system.realview.mcc.osc_mcc.clock               20000                       # Clock period in ticks
system.realview.mcc.osc_peripheral.clock        41667                       # Clock period in ticks
system.realview.mcc.osc_system_bus.clock        41667                       # Clock period in ticks
system.realview.rtc.pwrStateResidencyTicks::UNDEFINED 1545341343361500                       # Cumulative time (in ticks) in various power states
system.realview.uart.pwrStateResidencyTicks::UNDEFINED 1545341343361500                       # Cumulative time (in ticks) in various power states
system.realview.vgic.pwrStateResidencyTicks::UNDEFINED 1545341343361500                       # Cumulative time (in ticks) in various power states
system.realview.vio0.pwrStateResidencyTicks::UNDEFINED 1545341343361500                       # Cumulative time (in ticks) in various power states
system.realview.vio1.pwrStateResidencyTicks::UNDEFINED 1545341343361500                       # Cumulative time (in ticks) in various power states
system.tol2bus.snoop_filter.tot_requests    116823847                       # Total number of requests made to the snoop filter.
system.tol2bus.snoop_filter.hit_single_requests     52835576                       # Number of requests hitting in the snoop filter with a single holder of the requested data.
system.tol2bus.snoop_filter.hit_multi_requests     18970464                       # Number of requests hitting in the snoop filter with multiple (>1) holders of the requested data.
system.tol2bus.snoop_filter.tot_snoops        1758148                       # Total number of snoops made to the snoop filter.
system.tol2bus.snoop_filter.hit_single_snoops      1493742                       # Number of snoops hitting in the snoop filter with a single holder of the requested data.
system.tol2bus.snoop_filter.hit_multi_snoops       264406                       # Number of snoops hitting in the snoop filter with multiple (>1) holders of the requested data.
system.tol2bus.pwrStateResidencyTicks::UNDEFINED 1545341343361500                       # Cumulative time (in ticks) in various power states
system.tol2bus.trans_dist::ReadReq            4161019                       # Transaction distribution
system.tol2bus.trans_dist::ReadResp          53518074                       # Transaction distribution
system.tol2bus.trans_dist::WriteReq             77221                       # Transaction distribution
system.tol2bus.trans_dist::WriteResp            77221                       # Transaction distribution
system.tol2bus.trans_dist::WritebackDirty     15211824                       # Transaction distribution
system.tol2bus.trans_dist::WritebackClean     33546598                       # Transaction distribution
system.tol2bus.trans_dist::WriteClean          738394                       # Transaction distribution
system.tol2bus.trans_dist::CleanEvict         8157090                       # Transaction distribution
system.tol2bus.trans_dist::UpgradeReq          304017                       # Transaction distribution
system.tol2bus.trans_dist::SCUpgradeReq          7696                       # Transaction distribution
system.tol2bus.trans_dist::UpgradeResp         311713                       # Transaction distribution
system.tol2bus.trans_dist::ReadExReq          5172305                       # Transaction distribution
system.tol2bus.trans_dist::ReadExResp         5172305                       # Transaction distribution
system.tol2bus.trans_dist::ReadCleanReq      33548650                       # Transaction distribution
system.tol2bus.trans_dist::ReadSharedReq     15808405                       # Transaction distribution
system.tol2bus.trans_dist::CleanSharedReq           64                       # Transaction distribution
system.tol2bus.trans_dist::CleanSharedResp           64                       # Transaction distribution
system.tol2bus.trans_dist::CleanInvalidReq       971276                       # Transaction distribution
system.tol2bus.trans_dist::CleanInvalidResp       971276                       # Transaction distribution
system.tol2bus.trans_dist::InvalidateReq      3602174                       # Transaction distribution
system.tol2bus.trans_dist::InvalidateResp      3602174                       # Transaction distribution
system.tol2bus.pkt_count_system.cpu0.icache.mem_side::system.l2.cpu_side     40624499                       # Packet count per connected master and slave (bytes)
system.tol2bus.pkt_count_system.cpu0.dcache.mem_side::system.l2.cpu_side     37341406                       # Packet count per connected master and slave (bytes)
system.tol2bus.pkt_count_system.cpu0.itb.walker.dma::system.l2.cpu_side       682326                       # Packet count per connected master and slave (bytes)
system.tol2bus.pkt_count_system.cpu0.dtb.walker.dma::system.l2.cpu_side      1591174                       # Packet count per connected master and slave (bytes)
system.tol2bus.pkt_count_system.cpu1.icache.mem_side::system.l2.cpu_side     24798216                       # Packet count per connected master and slave (bytes)
system.tol2bus.pkt_count_system.cpu1.dcache.mem_side::system.l2.cpu_side     16385630                       # Packet count per connected master and slave (bytes)
system.tol2bus.pkt_count_system.cpu1.itb.walker.dma::system.l2.cpu_side       473698                       # Packet count per connected master and slave (bytes)
system.tol2bus.pkt_count_system.cpu1.dtb.walker.dma::system.l2.cpu_side      1304826                       # Packet count per connected master and slave (bytes)
system.tol2bus.pkt_count_system.cpu2.icache.mem_side::system.l2.cpu_side     16250861                       # Packet count per connected master and slave (bytes)
system.tol2bus.pkt_count_system.cpu2.dcache.mem_side::system.l2.cpu_side     11059858                       # Packet count per connected master and slave (bytes)
system.tol2bus.pkt_count_system.cpu2.itb.walker.dma::system.l2.cpu_side       337716                       # Packet count per connected master and slave (bytes)
system.tol2bus.pkt_count_system.cpu2.dtb.walker.dma::system.l2.cpu_side      2059052                       # Packet count per connected master and slave (bytes)
system.tol2bus.pkt_count_system.cpu3.icache.mem_side::system.l2.cpu_side     18980452                       # Packet count per connected master and slave (bytes)
system.tol2bus.pkt_count_system.cpu3.dcache.mem_side::system.l2.cpu_side     11369760                       # Packet count per connected master and slave (bytes)
system.tol2bus.pkt_count_system.cpu3.itb.walker.dma::system.l2.cpu_side       482158                       # Packet count per connected master and slave (bytes)
system.tol2bus.pkt_count_system.cpu3.dtb.walker.dma::system.l2.cpu_side      1217928                       # Packet count per connected master and slave (bytes)
system.tol2bus.pkt_count::total             184959560                       # Packet count per connected master and slave (bytes)
system.tol2bus.pkt_size_system.cpu0.icache.mem_side::system.l2.cpu_side   1732918764                       # Cumulative packet size per connected master and slave (bytes)
system.tol2bus.pkt_size_system.cpu0.dcache.mem_side::system.l2.cpu_side   1196297226                       # Cumulative packet size per connected master and slave (bytes)
system.tol2bus.pkt_size_system.cpu0.itb.walker.dma::system.l2.cpu_side      2729304                       # Cumulative packet size per connected master and slave (bytes)
system.tol2bus.pkt_size_system.cpu0.dtb.walker.dma::system.l2.cpu_side      6364696                       # Cumulative packet size per connected master and slave (bytes)
system.tol2bus.pkt_size_system.cpu1.icache.mem_side::system.l2.cpu_side   1058037184                       # Cumulative packet size per connected master and slave (bytes)
system.tol2bus.pkt_size_system.cpu1.dcache.mem_side::system.l2.cpu_side    490784137                       # Cumulative packet size per connected master and slave (bytes)
system.tol2bus.pkt_size_system.cpu1.itb.walker.dma::system.l2.cpu_side      1894792                       # Cumulative packet size per connected master and slave (bytes)
system.tol2bus.pkt_size_system.cpu1.dtb.walker.dma::system.l2.cpu_side      5219304                       # Cumulative packet size per connected master and slave (bytes)
system.tol2bus.pkt_size_system.cpu2.icache.mem_side::system.l2.cpu_side    693349224                       # Cumulative packet size per connected master and slave (bytes)
system.tol2bus.pkt_size_system.cpu2.dcache.mem_side::system.l2.cpu_side    333116704                       # Cumulative packet size per connected master and slave (bytes)
system.tol2bus.pkt_size_system.cpu2.itb.walker.dma::system.l2.cpu_side      1350864                       # Cumulative packet size per connected master and slave (bytes)
system.tol2bus.pkt_size_system.cpu2.dtb.walker.dma::system.l2.cpu_side      8236208                       # Cumulative packet size per connected master and slave (bytes)
system.tol2bus.pkt_size_system.cpu3.icache.mem_side::system.l2.cpu_side    809810960                       # Cumulative packet size per connected master and slave (bytes)
system.tol2bus.pkt_size_system.cpu3.dcache.mem_side::system.l2.cpu_side    343788972                       # Cumulative packet size per connected master and slave (bytes)
system.tol2bus.pkt_size_system.cpu3.itb.walker.dma::system.l2.cpu_side      1928632                       # Cumulative packet size per connected master and slave (bytes)
system.tol2bus.pkt_size_system.cpu3.dtb.walker.dma::system.l2.cpu_side      4871712                       # Cumulative packet size per connected master and slave (bytes)
system.tol2bus.pkt_size::total             6690698683                       # Cumulative packet size per connected master and slave (bytes)
system.tol2bus.snoops                        14942255                       # Total snoops (count)
system.tol2bus.snoopTraffic                 512978176                       # Total snoop traffic (bytes)
system.tol2bus.snoop_fanout::samples         78586722                       # Request fanout histogram
system.tol2bus.snoop_fanout::mean            0.313341                       # Request fanout histogram
system.tol2bus.snoop_fanout::stdev           0.711241                       # Request fanout histogram
system.tol2bus.snoop_fanout::underflows             0      0.00%      0.00% # Request fanout histogram
system.tol2bus.snoop_fanout::0               62702022     79.79%     79.79% # Request fanout histogram
system.tol2bus.snoop_fanout::1                9807069     12.48%     92.27% # Request fanout histogram
system.tol2bus.snoop_fanout::2                3436453      4.37%     96.64% # Request fanout histogram
system.tol2bus.snoop_fanout::3                2620244      3.33%     99.97% # Request fanout histogram
system.tol2bus.snoop_fanout::4                  20931      0.03%    100.00% # Request fanout histogram
system.tol2bus.snoop_fanout::5                      3      0.00%    100.00% # Request fanout histogram
system.tol2bus.snoop_fanout::6                      0      0.00%    100.00% # Request fanout histogram
system.tol2bus.snoop_fanout::7                      0      0.00%    100.00% # Request fanout histogram
system.tol2bus.snoop_fanout::8                      0      0.00%    100.00% # Request fanout histogram
system.tol2bus.snoop_fanout::overflows              0      0.00%    100.00% # Request fanout histogram
system.tol2bus.snoop_fanout::min_value              0                       # Request fanout histogram
system.tol2bus.snoop_fanout::max_value              5                       # Request fanout histogram
system.tol2bus.snoop_fanout::total           78586722                       # Request fanout histogram

---------- End Simulation Statistics   ----------
