
---------- Begin Simulation Statistics ----------
sim_seconds                                  2.935869                       # Number of seconds simulated
sim_ticks                                2935868848500                       # Number of ticks simulated
final_tick                               2935868848500                       # Number of ticks from beginning of simulation (restored from checkpoints and never reset)
sim_freq                                 1000000000000                       # Frequency of simulated ticks
host_inst_rate                                  98787                       # Simulator instruction rate (inst/s)
host_op_rate                                   105784                       # Simulator op (including micro ops) rate (op/s)
host_tick_rate                               93150281                       # Simulator tick rate (ticks/s)
host_mem_usage                                4410984                       # Number of bytes of host memory used
host_seconds                                 31517.55                       # Real time elapsed on the host
sim_insts                                  3113511900                       # Number of instructions simulated
sim_ops                                    3334043656                       # Number of ops (including micro ops) simulated
system.voltage_domain.voltage                       1                       # Voltage in Volts
system.clk_domain.clock                           625                       # Clock period in ticks
system.mem_ctrls.pwrStateResidencyTicks::UNDEFINED 2935868848500                       # Cumulative time (in ticks) in various power states
system.mem_ctrls.bytes_read::.cpu.inst         342272                       # Number of bytes read from this memory
system.mem_ctrls.bytes_read::.cpu.data     1153396032                       # Number of bytes read from this memory
system.mem_ctrls.bytes_read::total         1153738304                       # Number of bytes read from this memory
system.mem_ctrls.bytes_inst_read::.cpu.inst       342272                       # Number of instructions bytes read from this memory
system.mem_ctrls.bytes_inst_read::total        342272                       # Number of instructions bytes read from this memory
system.mem_ctrls.bytes_written::.writebacks    665088832                       # Number of bytes written to this memory
system.mem_ctrls.bytes_written::total       665088832                       # Number of bytes written to this memory
system.mem_ctrls.num_reads::.cpu.inst            5348                       # Number of read requests responded to by this memory
system.mem_ctrls.num_reads::.cpu.data        18021813                       # Number of read requests responded to by this memory
system.mem_ctrls.num_reads::total            18027161                       # Number of read requests responded to by this memory
system.mem_ctrls.num_writes::.writebacks     10392013                       # Number of write requests responded to by this memory
system.mem_ctrls.num_writes::total           10392013                       # Number of write requests responded to by this memory
system.mem_ctrls.bw_read::.cpu.inst            116583                       # Total read bandwidth from this memory (bytes/s)
system.mem_ctrls.bw_read::.cpu.data         392863609                       # Total read bandwidth from this memory (bytes/s)
system.mem_ctrls.bw_read::total             392980192                       # Total read bandwidth from this memory (bytes/s)
system.mem_ctrls.bw_inst_read::.cpu.inst       116583                       # Instruction read bandwidth from this memory (bytes/s)
system.mem_ctrls.bw_inst_read::total           116583                       # Instruction read bandwidth from this memory (bytes/s)
system.mem_ctrls.bw_write::.writebacks      226539013                       # Write bandwidth from this memory (bytes/s)
system.mem_ctrls.bw_write::total            226539013                       # Write bandwidth from this memory (bytes/s)
system.mem_ctrls.bw_total::.writebacks      226539013                       # Total bandwidth to/from this memory (bytes/s)
system.mem_ctrls.bw_total::.cpu.inst           116583                       # Total bandwidth to/from this memory (bytes/s)
system.mem_ctrls.bw_total::.cpu.data        392863609                       # Total bandwidth to/from this memory (bytes/s)
system.mem_ctrls.bw_total::total            619519205                       # Total bandwidth to/from this memory (bytes/s)
system.mem_ctrls.avgPriority_.writebacks::samples  10391998.00                       # Average QoS priority value for accepted requests
system.mem_ctrls.avgPriority_.cpu.inst::samples      5350.00                       # Average QoS priority value for accepted requests
system.mem_ctrls.avgPriority_.cpu.data::samples  18004740.00                       # Average QoS priority value for accepted requests
system.mem_ctrls.priorityMinLatency      0.000000017492                       # per QoS priority minimum request to response latency (s)
system.mem_ctrls.priorityMaxLatency      0.078853613652                       # per QoS priority maximum request to response latency (s)
system.mem_ctrls.numReadWriteTurnArounds       578541                       # Number of turnarounds from READ to WRITE
system.mem_ctrls.numWriteReadTurnArounds       578541                       # Number of turnarounds from WRITE to READ
system.mem_ctrls.numStayReadState            45561106                       # Number of times bus staying in READ state
system.mem_ctrls.numStayWriteState            9895186                       # Number of times bus staying in WRITE state
system.mem_ctrls.readReqs                    18027163                       # Number of read requests accepted
system.mem_ctrls.writeReqs                   10392013                       # Number of write requests accepted
system.mem_ctrls.readBursts                  18027163                       # Number of DRAM read bursts, including those serviced by the write queue
system.mem_ctrls.writeBursts                 10392013                       # Number of DRAM write bursts, including those merged in the write queue
system.mem_ctrls.bytesReadDRAM             1152645760                       # Total number of bytes read from DRAM
system.mem_ctrls.bytesReadWrQ                 1092672                       # Total number of bytes read from write queue
system.mem_ctrls.bytesWritten               665083840                       # Total number of bytes written to DRAM
system.mem_ctrls.bytesReadSys              1153738432                       # Total read bytes from the system interface side
system.mem_ctrls.bytesWrittenSys            665088832                       # Total written bytes from the system interface side
system.mem_ctrls.servicedByWrQ                  17073                       # Number of DRAM read bursts serviced by the write queue
system.mem_ctrls.mergedWrBursts                    15                       # Number of DRAM write bursts merged with an existing one
system.mem_ctrls.neitherReadNorWriteReqs            0                       # Number of requests that are neither read nor write
system.mem_ctrls.perBankRdBursts::0            573709                       # Per bank write bursts
system.mem_ctrls.perBankRdBursts::1            573438                       # Per bank write bursts
system.mem_ctrls.perBankRdBursts::2            574535                       # Per bank write bursts
system.mem_ctrls.perBankRdBursts::3            571427                       # Per bank write bursts
system.mem_ctrls.perBankRdBursts::4            570546                       # Per bank write bursts
system.mem_ctrls.perBankRdBursts::5            567876                       # Per bank write bursts
system.mem_ctrls.perBankRdBursts::6            555964                       # Per bank write bursts
system.mem_ctrls.perBankRdBursts::7            556237                       # Per bank write bursts
system.mem_ctrls.perBankRdBursts::8            555240                       # Per bank write bursts
system.mem_ctrls.perBankRdBursts::9            556711                       # Per bank write bursts
system.mem_ctrls.perBankRdBursts::10           556681                       # Per bank write bursts
system.mem_ctrls.perBankRdBursts::11           557532                       # Per bank write bursts
system.mem_ctrls.perBankRdBursts::12           556622                       # Per bank write bursts
system.mem_ctrls.perBankRdBursts::13           555012                       # Per bank write bursts
system.mem_ctrls.perBankRdBursts::14           555169                       # Per bank write bursts
system.mem_ctrls.perBankRdBursts::15           554337                       # Per bank write bursts
system.mem_ctrls.perBankRdBursts::16           555480                       # Per bank write bursts
system.mem_ctrls.perBankRdBursts::17           555473                       # Per bank write bursts
system.mem_ctrls.perBankRdBursts::18           556296                       # Per bank write bursts
system.mem_ctrls.perBankRdBursts::19           556959                       # Per bank write bursts
system.mem_ctrls.perBankRdBursts::20           559038                       # Per bank write bursts
system.mem_ctrls.perBankRdBursts::21           564958                       # Per bank write bursts
system.mem_ctrls.perBankRdBursts::22           564724                       # Per bank write bursts
system.mem_ctrls.perBankRdBursts::23           565445                       # Per bank write bursts
system.mem_ctrls.perBankRdBursts::24           563499                       # Per bank write bursts
system.mem_ctrls.perBankRdBursts::25           564963                       # Per bank write bursts
system.mem_ctrls.perBankRdBursts::26           564718                       # Per bank write bursts
system.mem_ctrls.perBankRdBursts::27           567863                       # Per bank write bursts
system.mem_ctrls.perBankRdBursts::28           568368                       # Per bank write bursts
system.mem_ctrls.perBankRdBursts::29           570115                       # Per bank write bursts
system.mem_ctrls.perBankRdBursts::30           569861                       # Per bank write bursts
system.mem_ctrls.perBankRdBursts::31           571294                       # Per bank write bursts
system.mem_ctrls.perBankWrBursts::0            326051                       # Per bank write bursts
system.mem_ctrls.perBankWrBursts::1            326585                       # Per bank write bursts
system.mem_ctrls.perBankWrBursts::2            326904                       # Per bank write bursts
system.mem_ctrls.perBankWrBursts::3            324882                       # Per bank write bursts
system.mem_ctrls.perBankWrBursts::4            325184                       # Per bank write bursts
system.mem_ctrls.perBankWrBursts::5            324316                       # Per bank write bursts
system.mem_ctrls.perBankWrBursts::6            322075                       # Per bank write bursts
system.mem_ctrls.perBankWrBursts::7            321642                       # Per bank write bursts
system.mem_ctrls.perBankWrBursts::8            321679                       # Per bank write bursts
system.mem_ctrls.perBankWrBursts::9            322287                       # Per bank write bursts
system.mem_ctrls.perBankWrBursts::10           322384                       # Per bank write bursts
system.mem_ctrls.perBankWrBursts::11           322247                       # Per bank write bursts
system.mem_ctrls.perBankWrBursts::12           322133                       # Per bank write bursts
system.mem_ctrls.perBankWrBursts::13           321052                       # Per bank write bursts
system.mem_ctrls.perBankWrBursts::14           320894                       # Per bank write bursts
system.mem_ctrls.perBankWrBursts::15           320969                       # Per bank write bursts
system.mem_ctrls.perBankWrBursts::16           320907                       # Per bank write bursts
system.mem_ctrls.perBankWrBursts::17           320865                       # Per bank write bursts
system.mem_ctrls.perBankWrBursts::18           321873                       # Per bank write bursts
system.mem_ctrls.perBankWrBursts::19           322411                       # Per bank write bursts
system.mem_ctrls.perBankWrBursts::20           322815                       # Per bank write bursts
system.mem_ctrls.perBankWrBursts::21           328642                       # Per bank write bursts
system.mem_ctrls.perBankWrBursts::22           328513                       # Per bank write bursts
system.mem_ctrls.perBankWrBursts::23           328673                       # Per bank write bursts
system.mem_ctrls.perBankWrBursts::24           328373                       # Per bank write bursts
system.mem_ctrls.perBankWrBursts::25           328833                       # Per bank write bursts
system.mem_ctrls.perBankWrBursts::26           329228                       # Per bank write bursts
system.mem_ctrls.perBankWrBursts::27           331340                       # Per bank write bursts
system.mem_ctrls.perBankWrBursts::28           330780                       # Per bank write bursts
system.mem_ctrls.perBankWrBursts::29           326394                       # Per bank write bursts
system.mem_ctrls.perBankWrBursts::30           325333                       # Per bank write bursts
system.mem_ctrls.perBankWrBursts::31           325671                       # Per bank write bursts
system.mem_ctrls.numRdRetry                         0                       # Number of times read queue was full causing retry
system.mem_ctrls.numWrRetry                       157                       # Number of times write queue was full causing retry
system.mem_ctrls.totGap                  2935868834500                       # Total gap between requests
system.mem_ctrls.readPktSize::0                     0                       # Read request sizes (log2)
system.mem_ctrls.readPktSize::1                     0                       # Read request sizes (log2)
system.mem_ctrls.readPktSize::2                     0                       # Read request sizes (log2)
system.mem_ctrls.readPktSize::3                     0                       # Read request sizes (log2)
system.mem_ctrls.readPktSize::4                     0                       # Read request sizes (log2)
system.mem_ctrls.readPktSize::5                     0                       # Read request sizes (log2)
system.mem_ctrls.readPktSize::6              18027163                       # Read request sizes (log2)
system.mem_ctrls.writePktSize::0                    0                       # Write request sizes (log2)
system.mem_ctrls.writePktSize::1                    0                       # Write request sizes (log2)
system.mem_ctrls.writePktSize::2                    0                       # Write request sizes (log2)
system.mem_ctrls.writePktSize::3                    0                       # Write request sizes (log2)
system.mem_ctrls.writePktSize::4                    0                       # Write request sizes (log2)
system.mem_ctrls.writePktSize::5                    0                       # Write request sizes (log2)
system.mem_ctrls.writePktSize::6             10392013                       # Write request sizes (log2)
system.mem_ctrls.rdQLenPdf::0                14641745                       # What read queue length does an incoming req see
system.mem_ctrls.rdQLenPdf::1                 3362827                       # What read queue length does an incoming req see
system.mem_ctrls.rdQLenPdf::2                    4112                       # What read queue length does an incoming req see
system.mem_ctrls.rdQLenPdf::3                    1393                       # What read queue length does an incoming req see
system.mem_ctrls.rdQLenPdf::4                      12                       # What read queue length does an incoming req see
system.mem_ctrls.rdQLenPdf::5                       1                       # What read queue length does an incoming req see
system.mem_ctrls.rdQLenPdf::6                       0                       # What read queue length does an incoming req see
system.mem_ctrls.rdQLenPdf::7                       0                       # What read queue length does an incoming req see
system.mem_ctrls.rdQLenPdf::8                       0                       # What read queue length does an incoming req see
system.mem_ctrls.rdQLenPdf::9                       0                       # What read queue length does an incoming req see
system.mem_ctrls.rdQLenPdf::10                      0                       # What read queue length does an incoming req see
system.mem_ctrls.rdQLenPdf::11                      0                       # What read queue length does an incoming req see
system.mem_ctrls.rdQLenPdf::12                      0                       # What read queue length does an incoming req see
system.mem_ctrls.rdQLenPdf::13                      0                       # What read queue length does an incoming req see
system.mem_ctrls.rdQLenPdf::14                      0                       # What read queue length does an incoming req see
system.mem_ctrls.rdQLenPdf::15                      0                       # What read queue length does an incoming req see
system.mem_ctrls.rdQLenPdf::16                      0                       # What read queue length does an incoming req see
system.mem_ctrls.rdQLenPdf::17                      0                       # What read queue length does an incoming req see
system.mem_ctrls.rdQLenPdf::18                      0                       # What read queue length does an incoming req see
system.mem_ctrls.rdQLenPdf::19                      0                       # What read queue length does an incoming req see
system.mem_ctrls.rdQLenPdf::20                      0                       # What read queue length does an incoming req see
system.mem_ctrls.rdQLenPdf::21                      0                       # What read queue length does an incoming req see
system.mem_ctrls.rdQLenPdf::22                      0                       # What read queue length does an incoming req see
system.mem_ctrls.rdQLenPdf::23                      0                       # What read queue length does an incoming req see
system.mem_ctrls.rdQLenPdf::24                      0                       # What read queue length does an incoming req see
system.mem_ctrls.rdQLenPdf::25                      0                       # What read queue length does an incoming req see
system.mem_ctrls.rdQLenPdf::26                      0                       # What read queue length does an incoming req see
system.mem_ctrls.rdQLenPdf::27                      0                       # What read queue length does an incoming req see
system.mem_ctrls.rdQLenPdf::28                      0                       # What read queue length does an incoming req see
system.mem_ctrls.rdQLenPdf::29                      0                       # What read queue length does an incoming req see
system.mem_ctrls.rdQLenPdf::30                      0                       # What read queue length does an incoming req see
system.mem_ctrls.rdQLenPdf::31                      0                       # What read queue length does an incoming req see
system.mem_ctrls.rdQLenPdf::32                      0                       # What read queue length does an incoming req see
system.mem_ctrls.rdQLenPdf::33                      0                       # What read queue length does an incoming req see
system.mem_ctrls.rdQLenPdf::34                      0                       # What read queue length does an incoming req see
system.mem_ctrls.rdQLenPdf::35                      0                       # What read queue length does an incoming req see
system.mem_ctrls.rdQLenPdf::36                      0                       # What read queue length does an incoming req see
system.mem_ctrls.rdQLenPdf::37                      0                       # What read queue length does an incoming req see
system.mem_ctrls.rdQLenPdf::38                      0                       # What read queue length does an incoming req see
system.mem_ctrls.rdQLenPdf::39                      0                       # What read queue length does an incoming req see
system.mem_ctrls.rdQLenPdf::40                      0                       # What read queue length does an incoming req see
system.mem_ctrls.rdQLenPdf::41                      0                       # What read queue length does an incoming req see
system.mem_ctrls.rdQLenPdf::42                      0                       # What read queue length does an incoming req see
system.mem_ctrls.rdQLenPdf::43                      0                       # What read queue length does an incoming req see
system.mem_ctrls.rdQLenPdf::44                      0                       # What read queue length does an incoming req see
system.mem_ctrls.rdQLenPdf::45                      0                       # What read queue length does an incoming req see
system.mem_ctrls.rdQLenPdf::46                      0                       # What read queue length does an incoming req see
system.mem_ctrls.rdQLenPdf::47                      0                       # What read queue length does an incoming req see
system.mem_ctrls.rdQLenPdf::48                      0                       # What read queue length does an incoming req see
system.mem_ctrls.rdQLenPdf::49                      0                       # What read queue length does an incoming req see
system.mem_ctrls.rdQLenPdf::50                      0                       # What read queue length does an incoming req see
system.mem_ctrls.rdQLenPdf::51                      0                       # What read queue length does an incoming req see
system.mem_ctrls.rdQLenPdf::52                      0                       # What read queue length does an incoming req see
system.mem_ctrls.rdQLenPdf::53                      0                       # What read queue length does an incoming req see
system.mem_ctrls.rdQLenPdf::54                      0                       # What read queue length does an incoming req see
system.mem_ctrls.rdQLenPdf::55                      0                       # What read queue length does an incoming req see
system.mem_ctrls.rdQLenPdf::56                      0                       # What read queue length does an incoming req see
system.mem_ctrls.rdQLenPdf::57                      0                       # What read queue length does an incoming req see
system.mem_ctrls.rdQLenPdf::58                      0                       # What read queue length does an incoming req see
system.mem_ctrls.rdQLenPdf::59                      0                       # What read queue length does an incoming req see
system.mem_ctrls.rdQLenPdf::60                      0                       # What read queue length does an incoming req see
system.mem_ctrls.rdQLenPdf::61                      0                       # What read queue length does an incoming req see
system.mem_ctrls.rdQLenPdf::62                      0                       # What read queue length does an incoming req see
system.mem_ctrls.rdQLenPdf::63                      0                       # What read queue length does an incoming req see
system.mem_ctrls.wrQLenPdf::0                       1                       # What write queue length does an incoming req see
system.mem_ctrls.wrQLenPdf::1                       1                       # What write queue length does an incoming req see
system.mem_ctrls.wrQLenPdf::2                       1                       # What write queue length does an incoming req see
system.mem_ctrls.wrQLenPdf::3                       1                       # What write queue length does an incoming req see
system.mem_ctrls.wrQLenPdf::4                       1                       # What write queue length does an incoming req see
system.mem_ctrls.wrQLenPdf::5                       1                       # What write queue length does an incoming req see
system.mem_ctrls.wrQLenPdf::6                       1                       # What write queue length does an incoming req see
system.mem_ctrls.wrQLenPdf::7                       1                       # What write queue length does an incoming req see
system.mem_ctrls.wrQLenPdf::8                       1                       # What write queue length does an incoming req see
system.mem_ctrls.wrQLenPdf::9                       1                       # What write queue length does an incoming req see
system.mem_ctrls.wrQLenPdf::10                      1                       # What write queue length does an incoming req see
system.mem_ctrls.wrQLenPdf::11                      1                       # What write queue length does an incoming req see
system.mem_ctrls.wrQLenPdf::12                      1                       # What write queue length does an incoming req see
system.mem_ctrls.wrQLenPdf::13                      1                       # What write queue length does an incoming req see
system.mem_ctrls.wrQLenPdf::14                      1                       # What write queue length does an incoming req see
system.mem_ctrls.wrQLenPdf::15                      1                       # What write queue length does an incoming req see
system.mem_ctrls.wrQLenPdf::16                      1                       # What write queue length does an incoming req see
system.mem_ctrls.wrQLenPdf::17                      1                       # What write queue length does an incoming req see
system.mem_ctrls.wrQLenPdf::18                      1                       # What write queue length does an incoming req see
system.mem_ctrls.wrQLenPdf::19                      1                       # What write queue length does an incoming req see
system.mem_ctrls.wrQLenPdf::20                      1                       # What write queue length does an incoming req see
system.mem_ctrls.wrQLenPdf::21                      1                       # What write queue length does an incoming req see
system.mem_ctrls.wrQLenPdf::22                      1                       # What write queue length does an incoming req see
system.mem_ctrls.wrQLenPdf::23                      1                       # What write queue length does an incoming req see
system.mem_ctrls.wrQLenPdf::24                      1                       # What write queue length does an incoming req see
system.mem_ctrls.wrQLenPdf::25                      1                       # What write queue length does an incoming req see
system.mem_ctrls.wrQLenPdf::26                      1                       # What write queue length does an incoming req see
system.mem_ctrls.wrQLenPdf::27                      1                       # What write queue length does an incoming req see
system.mem_ctrls.wrQLenPdf::28                      1                       # What write queue length does an incoming req see
system.mem_ctrls.wrQLenPdf::29                      1                       # What write queue length does an incoming req see
system.mem_ctrls.wrQLenPdf::30                      1                       # What write queue length does an incoming req see
system.mem_ctrls.wrQLenPdf::31                      1                       # What write queue length does an incoming req see
system.mem_ctrls.wrQLenPdf::32                      1                       # What write queue length does an incoming req see
system.mem_ctrls.wrQLenPdf::33                      1                       # What write queue length does an incoming req see
system.mem_ctrls.wrQLenPdf::34                      1                       # What write queue length does an incoming req see
system.mem_ctrls.wrQLenPdf::35                      1                       # What write queue length does an incoming req see
system.mem_ctrls.wrQLenPdf::36                      1                       # What write queue length does an incoming req see
system.mem_ctrls.wrQLenPdf::37                      1                       # What write queue length does an incoming req see
system.mem_ctrls.wrQLenPdf::38                      1                       # What write queue length does an incoming req see
system.mem_ctrls.wrQLenPdf::39                      1                       # What write queue length does an incoming req see
system.mem_ctrls.wrQLenPdf::40                      1                       # What write queue length does an incoming req see
system.mem_ctrls.wrQLenPdf::41                      1                       # What write queue length does an incoming req see
system.mem_ctrls.wrQLenPdf::42                      1                       # What write queue length does an incoming req see
system.mem_ctrls.wrQLenPdf::43                      1                       # What write queue length does an incoming req see
system.mem_ctrls.wrQLenPdf::44                      1                       # What write queue length does an incoming req see
system.mem_ctrls.wrQLenPdf::45                      1                       # What write queue length does an incoming req see
system.mem_ctrls.wrQLenPdf::46                      1                       # What write queue length does an incoming req see
system.mem_ctrls.wrQLenPdf::47                 178561                       # What write queue length does an incoming req see
system.mem_ctrls.wrQLenPdf::48                 209959                       # What write queue length does an incoming req see
system.mem_ctrls.wrQLenPdf::49                 618206                       # What write queue length does an incoming req see
system.mem_ctrls.wrQLenPdf::50                 626255                       # What write queue length does an incoming req see
system.mem_ctrls.wrQLenPdf::51                 630016                       # What write queue length does an incoming req see
system.mem_ctrls.wrQLenPdf::52                 611583                       # What write queue length does an incoming req see
system.mem_ctrls.wrQLenPdf::53                 616013                       # What write queue length does an incoming req see
system.mem_ctrls.wrQLenPdf::54                 628858                       # What write queue length does an incoming req see
system.mem_ctrls.wrQLenPdf::55                 640955                       # What write queue length does an incoming req see
system.mem_ctrls.wrQLenPdf::56                 614480                       # What write queue length does an incoming req see
system.mem_ctrls.wrQLenPdf::57                 605433                       # What write queue length does an incoming req see
system.mem_ctrls.wrQLenPdf::58                 601704                       # What write queue length does an incoming req see
system.mem_ctrls.wrQLenPdf::59                 602479                       # What write queue length does an incoming req see
system.mem_ctrls.wrQLenPdf::60                 596901                       # What write queue length does an incoming req see
system.mem_ctrls.wrQLenPdf::61                 588868                       # What write queue length does an incoming req see
system.mem_ctrls.wrQLenPdf::62                 593816                       # What write queue length does an incoming req see
system.mem_ctrls.wrQLenPdf::63                 599854                       # What write queue length does an incoming req see
system.mem_ctrls.wrQLenPdf::64                 600921                       # What write queue length does an incoming req see
system.mem_ctrls.wrQLenPdf::65                  15891                       # What write queue length does an incoming req see
system.mem_ctrls.wrQLenPdf::66                   9321                       # What write queue length does an incoming req see
system.mem_ctrls.wrQLenPdf::67                  12250                       # What write queue length does an incoming req see
system.mem_ctrls.wrQLenPdf::68                   6798                       # What write queue length does an incoming req see
system.mem_ctrls.wrQLenPdf::69                   4615                       # What write queue length does an incoming req see
system.mem_ctrls.wrQLenPdf::70                   3964                       # What write queue length does an incoming req see
system.mem_ctrls.wrQLenPdf::71                   3223                       # What write queue length does an incoming req see
system.mem_ctrls.wrQLenPdf::72                   2143                       # What write queue length does an incoming req see
system.mem_ctrls.wrQLenPdf::73                   1870                       # What write queue length does an incoming req see
system.mem_ctrls.wrQLenPdf::74                   3233                       # What write queue length does an incoming req see
system.mem_ctrls.wrQLenPdf::75                   3737                       # What write queue length does an incoming req see
system.mem_ctrls.wrQLenPdf::76                   4122                       # What write queue length does an incoming req see
system.mem_ctrls.wrQLenPdf::77                   3419                       # What write queue length does an incoming req see
system.mem_ctrls.wrQLenPdf::78                   2829                       # What write queue length does an incoming req see
system.mem_ctrls.wrQLenPdf::79                   6018                       # What write queue length does an incoming req see
system.mem_ctrls.wrQLenPdf::80                   5912                       # What write queue length does an incoming req see
system.mem_ctrls.wrQLenPdf::81                   2450                       # What write queue length does an incoming req see
system.mem_ctrls.wrQLenPdf::82                   1836                       # What write queue length does an incoming req see
system.mem_ctrls.wrQLenPdf::83                   2896                       # What write queue length does an incoming req see
system.mem_ctrls.wrQLenPdf::84                   3470                       # What write queue length does an incoming req see
system.mem_ctrls.wrQLenPdf::85                   3420                       # What write queue length does an incoming req see
system.mem_ctrls.wrQLenPdf::86                   2702                       # What write queue length does an incoming req see
system.mem_ctrls.wrQLenPdf::87                   2548                       # What write queue length does an incoming req see
system.mem_ctrls.wrQLenPdf::88                   2492                       # What write queue length does an incoming req see
system.mem_ctrls.wrQLenPdf::89                   6189                       # What write queue length does an incoming req see
system.mem_ctrls.wrQLenPdf::90                   4958                       # What write queue length does an incoming req see
system.mem_ctrls.wrQLenPdf::91                   4731                       # What write queue length does an incoming req see
system.mem_ctrls.wrQLenPdf::92                   4119                       # What write queue length does an incoming req see
system.mem_ctrls.wrQLenPdf::93                   2195                       # What write queue length does an incoming req see
system.mem_ctrls.wrQLenPdf::94                   2272                       # What write queue length does an incoming req see
system.mem_ctrls.wrQLenPdf::95                   3380                       # What write queue length does an incoming req see
system.mem_ctrls.wrQLenPdf::96                   4914                       # What write queue length does an incoming req see
system.mem_ctrls.wrQLenPdf::97                   3659                       # What write queue length does an incoming req see
system.mem_ctrls.wrQLenPdf::98                   2807                       # What write queue length does an incoming req see
system.mem_ctrls.wrQLenPdf::99                   6378                       # What write queue length does an incoming req see
system.mem_ctrls.wrQLenPdf::100                  5418                       # What write queue length does an incoming req see
system.mem_ctrls.wrQLenPdf::101                  5995                       # What write queue length does an incoming req see
system.mem_ctrls.wrQLenPdf::102                  3296                       # What write queue length does an incoming req see
system.mem_ctrls.wrQLenPdf::103                  3906                       # What write queue length does an incoming req see
system.mem_ctrls.wrQLenPdf::104                  2699                       # What write queue length does an incoming req see
system.mem_ctrls.wrQLenPdf::105                  3699                       # What write queue length does an incoming req see
system.mem_ctrls.wrQLenPdf::106                  2960                       # What write queue length does an incoming req see
system.mem_ctrls.wrQLenPdf::107                  3443                       # What write queue length does an incoming req see
system.mem_ctrls.wrQLenPdf::108                  3493                       # What write queue length does an incoming req see
system.mem_ctrls.wrQLenPdf::109                  3423                       # What write queue length does an incoming req see
system.mem_ctrls.wrQLenPdf::110                  3799                       # What write queue length does an incoming req see
system.mem_ctrls.wrQLenPdf::111                  3458                       # What write queue length does an incoming req see
system.mem_ctrls.wrQLenPdf::112                  2251                       # What write queue length does an incoming req see
system.mem_ctrls.wrQLenPdf::113                  3144                       # What write queue length does an incoming req see
system.mem_ctrls.wrQLenPdf::114                  1929                       # What write queue length does an incoming req see
system.mem_ctrls.wrQLenPdf::115                  3548                       # What write queue length does an incoming req see
system.mem_ctrls.wrQLenPdf::116                  1687                       # What write queue length does an incoming req see
system.mem_ctrls.wrQLenPdf::117                  2955                       # What write queue length does an incoming req see
system.mem_ctrls.wrQLenPdf::118                  1845                       # What write queue length does an incoming req see
system.mem_ctrls.wrQLenPdf::119                  2492                       # What write queue length does an incoming req see
system.mem_ctrls.wrQLenPdf::120                  2018                       # What write queue length does an incoming req see
system.mem_ctrls.wrQLenPdf::121                   816                       # What write queue length does an incoming req see
system.mem_ctrls.wrQLenPdf::122                   765                       # What write queue length does an incoming req see
system.mem_ctrls.wrQLenPdf::123                   505                       # What write queue length does an incoming req see
system.mem_ctrls.wrQLenPdf::124                   281                       # What write queue length does an incoming req see
system.mem_ctrls.wrQLenPdf::125                   114                       # What write queue length does an incoming req see
system.mem_ctrls.wrQLenPdf::126                    92                       # What write queue length does an incoming req see
system.mem_ctrls.wrQLenPdf::127                   297                       # What write queue length does an incoming req see
system.mem_ctrls.bytesPerActivate::samples      3074756                       # Bytes accessed per row activation
system.mem_ctrls.bytesPerActivate::mean    591.177800                       # Bytes accessed per row activation
system.mem_ctrls.bytesPerActivate::gmean   413.318740                       # Bytes accessed per row activation
system.mem_ctrls.bytesPerActivate::stdev   373.422562                       # Bytes accessed per row activation
system.mem_ctrls.bytesPerActivate::0-127       488372     15.88%     15.88% # Bytes accessed per row activation
system.mem_ctrls.bytesPerActivate::128-255       282285      9.18%     25.06% # Bytes accessed per row activation
system.mem_ctrls.bytesPerActivate::256-383       179417      5.84%     30.90% # Bytes accessed per row activation
system.mem_ctrls.bytesPerActivate::384-511       323427     10.52%     41.42% # Bytes accessed per row activation
system.mem_ctrls.bytesPerActivate::512-639       360132     11.71%     53.13% # Bytes accessed per row activation
system.mem_ctrls.bytesPerActivate::640-767       185729      6.04%     59.17% # Bytes accessed per row activation
system.mem_ctrls.bytesPerActivate::768-895       138853      4.52%     63.69% # Bytes accessed per row activation
system.mem_ctrls.bytesPerActivate::896-1023       102573      3.34%     67.02% # Bytes accessed per row activation
system.mem_ctrls.bytesPerActivate::1024-1151      1013968     32.98%    100.00% # Bytes accessed per row activation
system.mem_ctrls.bytesPerActivate::total      3074756                       # Bytes accessed per row activation
system.mem_ctrls.rdPerTurnAround::samples       578541                       # Reads before turning the bus around for writes
system.mem_ctrls.rdPerTurnAround::mean      31.130146                       # Reads before turning the bus around for writes
system.mem_ctrls.rdPerTurnAround::stdev    201.816099                       # Reads before turning the bus around for writes
system.mem_ctrls.rdPerTurnAround::0-255        576363     99.62%     99.62% # Reads before turning the bus around for writes
system.mem_ctrls.rdPerTurnAround::256-511         1145      0.20%     99.82% # Reads before turning the bus around for writes
system.mem_ctrls.rdPerTurnAround::512-767           94      0.02%     99.84% # Reads before turning the bus around for writes
system.mem_ctrls.rdPerTurnAround::768-1023           58      0.01%     99.85% # Reads before turning the bus around for writes
system.mem_ctrls.rdPerTurnAround::1024-1279           38      0.01%     99.85% # Reads before turning the bus around for writes
system.mem_ctrls.rdPerTurnAround::1280-1535           44      0.01%     99.86% # Reads before turning the bus around for writes
system.mem_ctrls.rdPerTurnAround::1536-1791           26      0.00%     99.87% # Reads before turning the bus around for writes
system.mem_ctrls.rdPerTurnAround::1792-2047           58      0.01%     99.88% # Reads before turning the bus around for writes
system.mem_ctrls.rdPerTurnAround::2048-2303           36      0.01%     99.88% # Reads before turning the bus around for writes
system.mem_ctrls.rdPerTurnAround::2304-2559           27      0.00%     99.89% # Reads before turning the bus around for writes
system.mem_ctrls.rdPerTurnAround::2560-2815           52      0.01%     99.90% # Reads before turning the bus around for writes
system.mem_ctrls.rdPerTurnAround::2816-3071           22      0.00%     99.90% # Reads before turning the bus around for writes
system.mem_ctrls.rdPerTurnAround::3072-3327           36      0.01%     99.91% # Reads before turning the bus around for writes
system.mem_ctrls.rdPerTurnAround::3328-3583           24      0.00%     99.91% # Reads before turning the bus around for writes
system.mem_ctrls.rdPerTurnAround::3584-3839           37      0.01%     99.92% # Reads before turning the bus around for writes
system.mem_ctrls.rdPerTurnAround::3840-4095           34      0.01%     99.92% # Reads before turning the bus around for writes
system.mem_ctrls.rdPerTurnAround::4096-4351           24      0.00%     99.93% # Reads before turning the bus around for writes
system.mem_ctrls.rdPerTurnAround::4352-4607           37      0.01%     99.93% # Reads before turning the bus around for writes
system.mem_ctrls.rdPerTurnAround::4608-4863           18      0.00%     99.94% # Reads before turning the bus around for writes
system.mem_ctrls.rdPerTurnAround::4864-5119           38      0.01%     99.94% # Reads before turning the bus around for writes
system.mem_ctrls.rdPerTurnAround::5120-5375           39      0.01%     99.95% # Reads before turning the bus around for writes
system.mem_ctrls.rdPerTurnAround::5376-5631           37      0.01%     99.96% # Reads before turning the bus around for writes
system.mem_ctrls.rdPerTurnAround::5632-5887            5      0.00%     99.96% # Reads before turning the bus around for writes
system.mem_ctrls.rdPerTurnAround::5888-6143           40      0.01%     99.96% # Reads before turning the bus around for writes
system.mem_ctrls.rdPerTurnAround::6144-6399           40      0.01%     99.97% # Reads before turning the bus around for writes
system.mem_ctrls.rdPerTurnAround::6400-6655           17      0.00%     99.97% # Reads before turning the bus around for writes
system.mem_ctrls.rdPerTurnAround::6656-6911           17      0.00%     99.98% # Reads before turning the bus around for writes
system.mem_ctrls.rdPerTurnAround::6912-7167            4      0.00%     99.98% # Reads before turning the bus around for writes
system.mem_ctrls.rdPerTurnAround::7168-7423           23      0.00%     99.98% # Reads before turning the bus around for writes
system.mem_ctrls.rdPerTurnAround::7424-7679           21      0.00%     99.98% # Reads before turning the bus around for writes
system.mem_ctrls.rdPerTurnAround::7680-7935           17      0.00%     99.99% # Reads before turning the bus around for writes
system.mem_ctrls.rdPerTurnAround::7936-8191            5      0.00%     99.99% # Reads before turning the bus around for writes
system.mem_ctrls.rdPerTurnAround::8192-8447            1      0.00%     99.99% # Reads before turning the bus around for writes
system.mem_ctrls.rdPerTurnAround::8448-8703            1      0.00%     99.99% # Reads before turning the bus around for writes
system.mem_ctrls.rdPerTurnAround::8704-8959            2      0.00%     99.99% # Reads before turning the bus around for writes
system.mem_ctrls.rdPerTurnAround::9216-9471            9      0.00%     99.99% # Reads before turning the bus around for writes
system.mem_ctrls.rdPerTurnAround::9728-9983            1      0.00%     99.99% # Reads before turning the bus around for writes
system.mem_ctrls.rdPerTurnAround::9984-10239           40      0.01%    100.00% # Reads before turning the bus around for writes
system.mem_ctrls.rdPerTurnAround::10240-10495            2      0.00%    100.00% # Reads before turning the bus around for writes
system.mem_ctrls.rdPerTurnAround::13312-13567            9      0.00%    100.00% # Reads before turning the bus around for writes
system.mem_ctrls.rdPerTurnAround::total        578541                       # Reads before turning the bus around for writes
system.mem_ctrls.wrPerTurnAround::samples       578541                       # Writes before turning the bus around for reads
system.mem_ctrls.wrPerTurnAround::mean      17.962314                       # Writes before turning the bus around for reads
system.mem_ctrls.wrPerTurnAround::gmean     17.229565                       # Writes before turning the bus around for reads
system.mem_ctrls.wrPerTurnAround::stdev     11.565598                       # Writes before turning the bus around for reads
system.mem_ctrls.wrPerTurnAround::16-23        552123     95.43%     95.43% # Writes before turning the bus around for reads
system.mem_ctrls.wrPerTurnAround::24-31          2754      0.48%     95.91% # Writes before turning the bus around for reads
system.mem_ctrls.wrPerTurnAround::32-39         16730      2.89%     98.80% # Writes before turning the bus around for reads
system.mem_ctrls.wrPerTurnAround::40-47          2055      0.36%     99.16% # Writes before turning the bus around for reads
system.mem_ctrls.wrPerTurnAround::48-55          2335      0.40%     99.56% # Writes before turning the bus around for reads
system.mem_ctrls.wrPerTurnAround::56-63            99      0.02%     99.58% # Writes before turning the bus around for reads
system.mem_ctrls.wrPerTurnAround::64-71           753      0.13%     99.71% # Writes before turning the bus around for reads
system.mem_ctrls.wrPerTurnAround::72-79           113      0.02%     99.73% # Writes before turning the bus around for reads
system.mem_ctrls.wrPerTurnAround::80-87            21      0.00%     99.73% # Writes before turning the bus around for reads
system.mem_ctrls.wrPerTurnAround::88-95           300      0.05%     99.78% # Writes before turning the bus around for reads
system.mem_ctrls.wrPerTurnAround::96-103            6      0.00%     99.78% # Writes before turning the bus around for reads
system.mem_ctrls.wrPerTurnAround::104-111           10      0.00%     99.79% # Writes before turning the bus around for reads
system.mem_ctrls.wrPerTurnAround::112-119           17      0.00%     99.79% # Writes before turning the bus around for reads
system.mem_ctrls.wrPerTurnAround::120-127            6      0.00%     99.79% # Writes before turning the bus around for reads
system.mem_ctrls.wrPerTurnAround::128-135           10      0.00%     99.79% # Writes before turning the bus around for reads
system.mem_ctrls.wrPerTurnAround::136-143           11      0.00%     99.79% # Writes before turning the bus around for reads
system.mem_ctrls.wrPerTurnAround::144-151            8      0.00%     99.79% # Writes before turning the bus around for reads
system.mem_ctrls.wrPerTurnAround::152-159           11      0.00%     99.80% # Writes before turning the bus around for reads
system.mem_ctrls.wrPerTurnAround::160-167            7      0.00%     99.80% # Writes before turning the bus around for reads
system.mem_ctrls.wrPerTurnAround::168-175            1      0.00%     99.80% # Writes before turning the bus around for reads
system.mem_ctrls.wrPerTurnAround::176-183           11      0.00%     99.80% # Writes before turning the bus around for reads
system.mem_ctrls.wrPerTurnAround::184-191           12      0.00%     99.80% # Writes before turning the bus around for reads
system.mem_ctrls.wrPerTurnAround::192-199           10      0.00%     99.80% # Writes before turning the bus around for reads
system.mem_ctrls.wrPerTurnAround::200-207            4      0.00%     99.80% # Writes before turning the bus around for reads
system.mem_ctrls.wrPerTurnAround::208-215            9      0.00%     99.81% # Writes before turning the bus around for reads
system.mem_ctrls.wrPerTurnAround::216-223           18      0.00%     99.81% # Writes before turning the bus around for reads
system.mem_ctrls.wrPerTurnAround::224-231           32      0.01%     99.81% # Writes before turning the bus around for reads
system.mem_ctrls.wrPerTurnAround::232-239           10      0.00%     99.82% # Writes before turning the bus around for reads
system.mem_ctrls.wrPerTurnAround::240-247          530      0.09%     99.91% # Writes before turning the bus around for reads
system.mem_ctrls.wrPerTurnAround::248-255           83      0.01%     99.92% # Writes before turning the bus around for reads
system.mem_ctrls.wrPerTurnAround::256-263          217      0.04%     99.96% # Writes before turning the bus around for reads
system.mem_ctrls.wrPerTurnAround::264-271          223      0.04%    100.00% # Writes before turning the bus around for reads
system.mem_ctrls.wrPerTurnAround::280-287            2      0.00%    100.00% # Writes before turning the bus around for reads
system.mem_ctrls.wrPerTurnAround::288-295            1      0.00%    100.00% # Writes before turning the bus around for reads
system.mem_ctrls.wrPerTurnAround::304-311            1      0.00%    100.00% # Writes before turning the bus around for reads
system.mem_ctrls.wrPerTurnAround::312-319            1      0.00%    100.00% # Writes before turning the bus around for reads
system.mem_ctrls.wrPerTurnAround::336-343            1      0.00%    100.00% # Writes before turning the bus around for reads
system.mem_ctrls.wrPerTurnAround::344-351            1      0.00%    100.00% # Writes before turning the bus around for reads
system.mem_ctrls.wrPerTurnAround::352-359            1      0.00%    100.00% # Writes before turning the bus around for reads
system.mem_ctrls.wrPerTurnAround::376-383            1      0.00%    100.00% # Writes before turning the bus around for reads
system.mem_ctrls.wrPerTurnAround::384-391            1      0.00%    100.00% # Writes before turning the bus around for reads
system.mem_ctrls.wrPerTurnAround::440-447            1      0.00%    100.00% # Writes before turning the bus around for reads
system.mem_ctrls.wrPerTurnAround::512-519            1      0.00%    100.00% # Writes before turning the bus around for reads
system.mem_ctrls.wrPerTurnAround::total        578541                       # Writes before turning the bus around for reads
system.mem_ctrls.masterReadBytes::.cpu.inst       342400                       # Per-master bytes read from memory
system.mem_ctrls.masterReadBytes::.cpu.data   1152303360                       # Per-master bytes read from memory
system.mem_ctrls.masterWriteBytes::.writebacks    665083840                       # Per-master bytes write to memory
system.mem_ctrls.masterReadRate::.cpu.inst 116626.463125197057                       # Per-master bytes read from memory rate (Bytes/sec)
system.mem_ctrls.masterReadRate::.cpu.data 392491429.100702881813                       # Per-master bytes read from memory rate (Bytes/sec)
system.mem_ctrls.masterWriteRate::.writebacks 226537312.911578446627                       # Per-master bytes write to memory rate (Bytes/sec)
system.mem_ctrls.masterReadAccesses::.cpu.inst         5350                       # Per-master read serviced memory accesses
system.mem_ctrls.masterReadAccesses::.cpu.data     18021813                       # Per-master read serviced memory accesses
system.mem_ctrls.masterWriteAccesses::.writebacks     10392013                       # Per-master write serviced memory accesses
system.mem_ctrls.masterReadTotalLat::.cpu.inst    324621619                       # Per-master read total memory access latency
system.mem_ctrls.masterReadTotalLat::.cpu.data 657946939913                       # Per-master read total memory access latency
system.mem_ctrls.masterWriteTotalLat::.writebacks 164631795533379                       # Per-master write total memory access latency
system.mem_ctrls.masterReadAvgLat::.cpu.inst     60676.94                       # Per-master read average memory access latency
system.mem_ctrls.masterReadAvgLat::.cpu.data     36508.37                       # Per-master read average memory access latency
system.mem_ctrls.masterWriteAvgLat::.writebacks  15842146.80                       # Per-master write average memory access latency
system.mem_ctrls.totQLat                 343239067252                       # Total ticks spent queuing
system.mem_ctrls.totMemAccLat            658271561532                       # Total ticks spent from burst creation until serviced by the DRAM
system.mem_ctrls.totBusLat                60009619880                       # Total ticks spent in databus transfers
system.mem_ctrls.avgQLat                     19058.15                       # Average queueing delay per DRAM burst
system.mem_ctrls.avgBusLat                    3332.00                       # Average bus latency per DRAM burst
system.mem_ctrls.avgMemAccLat                36550.15                       # Average memory access latency per DRAM burst
system.mem_ctrls.avgRdBW                       392.61                       # Average DRAM read bandwidth in MiByte/s
system.mem_ctrls.avgWrBW                       226.54                       # Average achieved write bandwidth in MiByte/s
system.mem_ctrls.avgRdBWSys                    392.98                       # Average system read bandwidth in MiByte/s
system.mem_ctrls.avgWrBWSys                    226.54                       # Average system write bandwidth in MiByte/s
system.mem_ctrls.peakBW                      19207.00                       # Theoretical peak bandwidth in MiByte/s
system.mem_ctrls.busUtil                         3.22                       # Data bus utilization in percentage
system.mem_ctrls.busUtilRead                     2.04                       # Data bus utilization in percentage for reads
system.mem_ctrls.busUtilWrite                    1.18                       # Data bus utilization in percentage for writes
system.mem_ctrls.avgRdQLen                       1.13                       # Average read queue length when enqueuing
system.mem_ctrls.avgWrQLen                      57.04                       # Average write queue length when enqueuing
system.mem_ctrls.readRowHits                 16044296                       # Number of row buffer hits during reads
system.mem_ctrls.writeRowHits                 9282957                       # Number of row buffer hits during writes
system.mem_ctrls.readRowHitRate                 89.09                       # Row buffer hit rate for reads
system.mem_ctrls.writeRowHitRate                89.33                       # Row buffer hit rate for writes
system.mem_ctrls.avgGap                     103305.91                       # Average gap between requests
system.mem_ctrls.pageHitRate                    89.17                       # Row buffer hit rate, read and write combined
system.mem_ctrls_0.actEnergy             4259239569.422614                       # Energy for activate commands per rank (pJ)
system.mem_ctrls_0.preEnergy             2875276742.405383                       # Energy for precharge commands per rank (pJ)
system.mem_ctrls_0.readEnergy            13789252443.865456                       # Energy for read commands per rank (pJ)
system.mem_ctrls_0.writeEnergy           7260093444.543374                       # Energy for write commands per rank (pJ)
system.mem_ctrls_0.refreshEnergy         61550489784.059410                       # Energy for refresh commands per rank (pJ)
system.mem_ctrls_0.actBackEnergy         60479738777.865913                       # Energy for active background per rank (pJ)
system.mem_ctrls_0.preBackEnergy         3345781767.748781                       # Energy for precharge background per rank (pJ)
system.mem_ctrls_0.actPowerDownEnergy    137654062401.573303                       # Energy for active power-down per rank (pJ)
system.mem_ctrls_0.prePowerDownEnergy    37301605986.906822                       # Energy for precharge power-down per rank (pJ)
system.mem_ctrls_0.selfRefreshEnergy     253194312976.499420                       # Energy for self refresh per rank (pJ)
system.mem_ctrls_0.totalEnergy           582113494976.932251                       # Total energy per rank (pJ)
system.mem_ctrls_0.averagePower            198.276396                       # Core power per rank (mW)
system.mem_ctrls_0.totalIdleTime         2677143973897                       # Total Idle time Per DRAM Rank
system.mem_ctrls_0.memoryStateTime::IDLE  14770812622                       # Time in different power states
system.mem_ctrls_0.memoryStateTime::REF   56439600000                       # Time in different power states
system.mem_ctrls_0.memoryStateTime::SREF 1666835105771                       # Time in different power states
system.mem_ctrls_0.memoryStateTime::PRE_PDN 310846666083                       # Time in different power states
system.mem_ctrls_0.memoryStateTime::ACT  187514165633                       # Time in different power states
system.mem_ctrls_0.memoryStateTime::ACT_PDN 699462498391                       # Time in different power states
system.mem_ctrls_1.actEnergy             4125565778.335249                       # Energy for activate commands per rank (pJ)
system.mem_ctrls_1.preEnergy             2785037367.266751                       # Energy for precharge commands per rank (pJ)
system.mem_ctrls_1.readEnergy            13496611103.243378                       # Energy for read commands per rank (pJ)
system.mem_ctrls_1.writeEnergy           7193033055.432721                       # Energy for write commands per rank (pJ)
system.mem_ctrls_1.refreshEnergy         59315669884.733696                       # Energy for refresh commands per rank (pJ)
system.mem_ctrls_1.actBackEnergy         58604287278.658356                       # Energy for active background per rank (pJ)
system.mem_ctrls_1.preBackEnergy         3257585020.565073                       # Energy for precharge background per rank (pJ)
system.mem_ctrls_1.actPowerDownEnergy    132788050885.052948                       # Energy for active power-down per rank (pJ)
system.mem_ctrls_1.prePowerDownEnergy    35715702502.150284                       # Energy for precharge power-down per rank (pJ)
system.mem_ctrls_1.selfRefreshEnergy     259328968139.494324                       # Energy for self refresh per rank (pJ)
system.mem_ctrls_1.totalEnergy           576951321258.361206                       # Total energy per rank (pJ)
system.mem_ctrls_1.averagePower            196.518084                       # Core power per rank (mW)
system.mem_ctrls_1.totalIdleTime         2685271190626                       # Total Idle time Per DRAM Rank
system.mem_ctrls_1.memoryStateTime::IDLE  14261984965                       # Time in different power states
system.mem_ctrls_1.memoryStateTime::REF   54390350000                       # Time in different power states
system.mem_ctrls_1.memoryStateTime::SREF 1712904333609                       # Time in different power states
system.mem_ctrls_1.memoryStateTime::PRE_PDN 297630993175                       # Time in different power states
system.mem_ctrls_1.memoryStateTime::ACT  181945322909                       # Time in different power states
system.mem_ctrls_1.memoryStateTime::ACT_PDN 674735863842                       # Time in different power states
system.mem_ctrls_2.actEnergy             4181838538.224034                       # Energy for activate commands per rank (pJ)
system.mem_ctrls_2.preEnergy             2823025507.263354                       # Energy for precharge commands per rank (pJ)
system.mem_ctrls_2.readEnergy            13590901891.835142                       # Energy for read commands per rank (pJ)
system.mem_ctrls_2.writeEnergy           7251876492.639249                       # Energy for write commands per rank (pJ)
system.mem_ctrls_2.refreshEnergy         59922945454.302818                       # Energy for refresh commands per rank (pJ)
system.mem_ctrls_2.actBackEnergy         59239092967.772484                       # Energy for active background per rank (pJ)
system.mem_ctrls_2.preBackEnergy         3297147229.348950                       # Energy for precharge background per rank (pJ)
system.mem_ctrls_2.actPowerDownEnergy    134157087059.448608                       # Energy for active power-down per rank (pJ)
system.mem_ctrls_2.prePowerDownEnergy    36062521519.027687                       # Energy for precharge power-down per rank (pJ)
system.mem_ctrls_2.selfRefreshEnergy     257645693766.674805                       # Energy for self refresh per rank (pJ)
system.mem_ctrls_2.totalEnergy           578499376491.807373                       # Total energy per rank (pJ)
system.mem_ctrls_2.averagePower            197.045374                       # Core power per rank (mW)
system.mem_ctrls_2.totalIdleTime         2682599586097                       # Total Idle time Per DRAM Rank
system.mem_ctrls_2.memoryStateTime::IDLE  14380935981                       # Time in different power states
system.mem_ctrls_2.memoryStateTime::REF   54947200000                       # Time in different power states
system.mem_ctrls_2.memoryStateTime::SREF 1700385888881                       # Time in different power states
system.mem_ctrls_2.memoryStateTime::PRE_PDN 300520963366                       # Time in different power states
system.mem_ctrls_2.memoryStateTime::ACT  183941126422                       # Time in different power states
system.mem_ctrls_2.memoryStateTime::ACT_PDN 681692733850                       # Time in different power states
system.mem_ctrls_3.actEnergy             4254851979.160833                       # Energy for activate commands per rank (pJ)
system.mem_ctrls_3.preEnergy             2872314804.988084                       # Energy for precharge commands per rank (pJ)
system.mem_ctrls_3.readEnergy            13779993312.999435                       # Energy for read commands per rank (pJ)
system.mem_ctrls_3.writeEnergy           7339224927.284119                       # Energy for write commands per rank (pJ)
system.mem_ctrls_3.refreshEnergy         60924511195.691490                       # Energy for refresh commands per rank (pJ)
system.mem_ctrls_3.actBackEnergy         60516197456.558205                       # Energy for active background per rank (pJ)
system.mem_ctrls_3.preBackEnergy         3358848179.092903                       # Energy for precharge background per rank (pJ)
system.mem_ctrls_3.actPowerDownEnergy    136376560638.762131                       # Energy for active power-down per rank (pJ)
system.mem_ctrls_3.prePowerDownEnergy    36542074521.066269                       # Energy for precharge power-down per rank (pJ)
system.mem_ctrls_3.selfRefreshEnergy     255010793422.566040                       # Energy for self refresh per rank (pJ)
system.mem_ctrls_3.totalEnergy           581336557829.498047                       # Total energy per rank (pJ)
system.mem_ctrls_3.averagePower            198.011760                       # Core power per rank (mW)
system.mem_ctrls_3.totalIdleTime         2677089020342                       # Total Idle time Per DRAM Rank
system.mem_ctrls_3.memoryStateTime::IDLE  14764240581                       # Time in different power states
system.mem_ctrls_3.memoryStateTime::REF   55865600000                       # Time in different power states
system.mem_ctrls_3.memoryStateTime::SREF 1679602232903                       # Time in different power states
system.mem_ctrls_3.memoryStateTime::PRE_PDN 304517290234                       # Time in different power states
system.mem_ctrls_3.memoryStateTime::ACT  188149807569                       # Time in different power states
system.mem_ctrls_3.memoryStateTime::ACT_PDN 692969677213                       # Time in different power states
system.pwrStateResidencyTicks::UNDEFINED 2935868848500                       # Cumulative time (in ticks) in various power states
system.cpu.branchPred.lookups               591946538                       # Number of BP lookups
system.cpu.branchPred.condPredicted         413844376                       # Number of conditional branches predicted
system.cpu.branchPred.condIncorrect           8410114                       # Number of conditional branches incorrect
system.cpu.branchPred.BTBLookups            371495874                       # Number of BTB lookups
system.cpu.branchPred.BTBHits               362238823                       # Number of BTB hits
system.cpu.branchPred.BTBCorrect                    0                       # Number of correct BTB predictions (this stat may not work properly.
system.cpu.branchPred.BTBHitPct             97.508169                       # BTB Hit Percentage
system.cpu.branchPred.usedRAS                81257227                       # Number of times the RAS was used to get a target.
system.cpu.branchPred.RASInCorrect                  8                       # Number of incorrect RAS predictions.
system.cpu.branchPred.indirectLookups            3916                       # Number of indirect predictor lookups.
system.cpu.branchPred.indirectHits               2915                       # Number of indirect target hits.
system.cpu.branchPred.indirectMisses             1001                       # Number of indirect misses.
system.cpu.branchPredindirectMispredicted          638                       # Number of mispredicted indirect branches.
system.cpu_voltage_domain.voltage                   1                       # Voltage in Volts
system.cpu_clk_domain.clock                       500                       # Clock period in ticks
system.cpu.dstage2_mmu.stage2_tlb.walker.pwrStateResidencyTicks::UNDEFINED 2935868848500                       # Cumulative time (in ticks) in various power states
system.cpu.dstage2_mmu.stage2_tlb.walker.walks            0                       # Table walker walks requested
system.cpu.dstage2_mmu.stage2_tlb.walker.walkRequestOrigin_Requested::Data            0                       # Table walker requests started/completed, data/inst
system.cpu.dstage2_mmu.stage2_tlb.walker.walkRequestOrigin_Requested::Inst            0                       # Table walker requests started/completed, data/inst
system.cpu.dstage2_mmu.stage2_tlb.walker.walkRequestOrigin_Requested::total            0                       # Table walker requests started/completed, data/inst
system.cpu.dstage2_mmu.stage2_tlb.walker.walkRequestOrigin_Completed::Data            0                       # Table walker requests started/completed, data/inst
system.cpu.dstage2_mmu.stage2_tlb.walker.walkRequestOrigin_Completed::Inst            0                       # Table walker requests started/completed, data/inst
system.cpu.dstage2_mmu.stage2_tlb.walker.walkRequestOrigin_Completed::total            0                       # Table walker requests started/completed, data/inst
system.cpu.dstage2_mmu.stage2_tlb.walker.walkRequestOrigin::total            0                       # Table walker requests started/completed, data/inst
system.cpu.dstage2_mmu.stage2_tlb.inst_hits            0                       # ITB inst hits
system.cpu.dstage2_mmu.stage2_tlb.inst_misses            0                       # ITB inst misses
system.cpu.dstage2_mmu.stage2_tlb.read_hits            0                       # DTB read hits
system.cpu.dstage2_mmu.stage2_tlb.read_misses            0                       # DTB read misses
system.cpu.dstage2_mmu.stage2_tlb.write_hits            0                       # DTB write hits
system.cpu.dstage2_mmu.stage2_tlb.write_misses            0                       # DTB write misses
system.cpu.dstage2_mmu.stage2_tlb.flush_tlb            0                       # Number of times complete TLB was flushed
system.cpu.dstage2_mmu.stage2_tlb.flush_tlb_mva            0                       # Number of times TLB was flushed by MVA
system.cpu.dstage2_mmu.stage2_tlb.flush_tlb_mva_asid            0                       # Number of times TLB was flushed by MVA & ASID
system.cpu.dstage2_mmu.stage2_tlb.flush_tlb_asid            0                       # Number of times TLB was flushed by ASID
system.cpu.dstage2_mmu.stage2_tlb.flush_entries            0                       # Number of entries that have been flushed from TLB
system.cpu.dstage2_mmu.stage2_tlb.align_faults            0                       # Number of TLB faults due to alignment restrictions
system.cpu.dstage2_mmu.stage2_tlb.prefetch_faults            0                       # Number of TLB faults due to prefetch
system.cpu.dstage2_mmu.stage2_tlb.domain_faults            0                       # Number of TLB faults due to domain restrictions
system.cpu.dstage2_mmu.stage2_tlb.perms_faults            0                       # Number of TLB faults due to permissions restrictions
system.cpu.dstage2_mmu.stage2_tlb.read_accesses            0                       # DTB read accesses
system.cpu.dstage2_mmu.stage2_tlb.write_accesses            0                       # DTB write accesses
system.cpu.dstage2_mmu.stage2_tlb.inst_accesses            0                       # ITB inst accesses
system.cpu.dstage2_mmu.stage2_tlb.hits              0                       # DTB hits
system.cpu.dstage2_mmu.stage2_tlb.misses            0                       # DTB misses
system.cpu.dstage2_mmu.stage2_tlb.accesses            0                       # DTB accesses
system.cpu.dtb.walker.pwrStateResidencyTicks::UNDEFINED 2935868848500                       # Cumulative time (in ticks) in various power states
system.cpu.dtb.walker.walks                         0                       # Table walker walks requested
system.cpu.dtb.walker.walkRequestOrigin_Requested::Data            0                       # Table walker requests started/completed, data/inst
system.cpu.dtb.walker.walkRequestOrigin_Requested::Inst            0                       # Table walker requests started/completed, data/inst
system.cpu.dtb.walker.walkRequestOrigin_Requested::total            0                       # Table walker requests started/completed, data/inst
system.cpu.dtb.walker.walkRequestOrigin_Completed::Data            0                       # Table walker requests started/completed, data/inst
system.cpu.dtb.walker.walkRequestOrigin_Completed::Inst            0                       # Table walker requests started/completed, data/inst
system.cpu.dtb.walker.walkRequestOrigin_Completed::total            0                       # Table walker requests started/completed, data/inst
system.cpu.dtb.walker.walkRequestOrigin::total            0                       # Table walker requests started/completed, data/inst
system.cpu.dtb.inst_hits                            0                       # ITB inst hits
system.cpu.dtb.inst_misses                          0                       # ITB inst misses
system.cpu.dtb.read_hits                            0                       # DTB read hits
system.cpu.dtb.read_misses                          0                       # DTB read misses
system.cpu.dtb.write_hits                           0                       # DTB write hits
system.cpu.dtb.write_misses                         0                       # DTB write misses
system.cpu.dtb.flush_tlb                            0                       # Number of times complete TLB was flushed
system.cpu.dtb.flush_tlb_mva                        0                       # Number of times TLB was flushed by MVA
system.cpu.dtb.flush_tlb_mva_asid                   0                       # Number of times TLB was flushed by MVA & ASID
system.cpu.dtb.flush_tlb_asid                       0                       # Number of times TLB was flushed by ASID
system.cpu.dtb.flush_entries                        0                       # Number of entries that have been flushed from TLB
system.cpu.dtb.align_faults                         0                       # Number of TLB faults due to alignment restrictions
system.cpu.dtb.prefetch_faults                      0                       # Number of TLB faults due to prefetch
system.cpu.dtb.domain_faults                        0                       # Number of TLB faults due to domain restrictions
system.cpu.dtb.perms_faults                         0                       # Number of TLB faults due to permissions restrictions
system.cpu.dtb.read_accesses                        0                       # DTB read accesses
system.cpu.dtb.write_accesses                       0                       # DTB write accesses
system.cpu.dtb.inst_accesses                        0                       # ITB inst accesses
system.cpu.dtb.hits                                 0                       # DTB hits
system.cpu.dtb.misses                               0                       # DTB misses
system.cpu.dtb.accesses                             0                       # DTB accesses
system.cpu.istage2_mmu.stage2_tlb.walker.pwrStateResidencyTicks::UNDEFINED 2935868848500                       # Cumulative time (in ticks) in various power states
system.cpu.istage2_mmu.stage2_tlb.walker.walks            0                       # Table walker walks requested
system.cpu.istage2_mmu.stage2_tlb.walker.walkRequestOrigin_Requested::Data            0                       # Table walker requests started/completed, data/inst
system.cpu.istage2_mmu.stage2_tlb.walker.walkRequestOrigin_Requested::Inst            0                       # Table walker requests started/completed, data/inst
system.cpu.istage2_mmu.stage2_tlb.walker.walkRequestOrigin_Requested::total            0                       # Table walker requests started/completed, data/inst
system.cpu.istage2_mmu.stage2_tlb.walker.walkRequestOrigin_Completed::Data            0                       # Table walker requests started/completed, data/inst
system.cpu.istage2_mmu.stage2_tlb.walker.walkRequestOrigin_Completed::Inst            0                       # Table walker requests started/completed, data/inst
system.cpu.istage2_mmu.stage2_tlb.walker.walkRequestOrigin_Completed::total            0                       # Table walker requests started/completed, data/inst
system.cpu.istage2_mmu.stage2_tlb.walker.walkRequestOrigin::total            0                       # Table walker requests started/completed, data/inst
system.cpu.istage2_mmu.stage2_tlb.inst_hits            0                       # ITB inst hits
system.cpu.istage2_mmu.stage2_tlb.inst_misses            0                       # ITB inst misses
system.cpu.istage2_mmu.stage2_tlb.read_hits            0                       # DTB read hits
system.cpu.istage2_mmu.stage2_tlb.read_misses            0                       # DTB read misses
system.cpu.istage2_mmu.stage2_tlb.write_hits            0                       # DTB write hits
system.cpu.istage2_mmu.stage2_tlb.write_misses            0                       # DTB write misses
system.cpu.istage2_mmu.stage2_tlb.flush_tlb            0                       # Number of times complete TLB was flushed
system.cpu.istage2_mmu.stage2_tlb.flush_tlb_mva            0                       # Number of times TLB was flushed by MVA
system.cpu.istage2_mmu.stage2_tlb.flush_tlb_mva_asid            0                       # Number of times TLB was flushed by MVA & ASID
system.cpu.istage2_mmu.stage2_tlb.flush_tlb_asid            0                       # Number of times TLB was flushed by ASID
system.cpu.istage2_mmu.stage2_tlb.flush_entries            0                       # Number of entries that have been flushed from TLB
system.cpu.istage2_mmu.stage2_tlb.align_faults            0                       # Number of TLB faults due to alignment restrictions
system.cpu.istage2_mmu.stage2_tlb.prefetch_faults            0                       # Number of TLB faults due to prefetch
system.cpu.istage2_mmu.stage2_tlb.domain_faults            0                       # Number of TLB faults due to domain restrictions
system.cpu.istage2_mmu.stage2_tlb.perms_faults            0                       # Number of TLB faults due to permissions restrictions
system.cpu.istage2_mmu.stage2_tlb.read_accesses            0                       # DTB read accesses
system.cpu.istage2_mmu.stage2_tlb.write_accesses            0                       # DTB write accesses
system.cpu.istage2_mmu.stage2_tlb.inst_accesses            0                       # ITB inst accesses
system.cpu.istage2_mmu.stage2_tlb.hits              0                       # DTB hits
system.cpu.istage2_mmu.stage2_tlb.misses            0                       # DTB misses
system.cpu.istage2_mmu.stage2_tlb.accesses            0                       # DTB accesses
system.cpu.itb.walker.pwrStateResidencyTicks::UNDEFINED 2935868848500                       # Cumulative time (in ticks) in various power states
system.cpu.itb.walker.walks                         0                       # Table walker walks requested
system.cpu.itb.walker.walkRequestOrigin_Requested::Data            0                       # Table walker requests started/completed, data/inst
system.cpu.itb.walker.walkRequestOrigin_Requested::Inst            0                       # Table walker requests started/completed, data/inst
system.cpu.itb.walker.walkRequestOrigin_Requested::total            0                       # Table walker requests started/completed, data/inst
[...]
system.l2.demand_miss_rate::.cpu.data        0.669326                       # miss rate for demand accesses
system.l2.demand_miss_rate::total            0.669186                       # miss rate for demand accesses
system.l2.overall_miss_rate::.cpu.inst       0.392475                       # miss rate for overall accesses
system.l2.overall_miss_rate::.cpu.data       0.669326                       # miss rate for overall accesses
system.l2.overall_miss_rate::total           0.669186                       # miss rate for overall accesses
system.l2.ReadExReq_avg_miss_latency::.cpu.data 88379.579444                       # average ReadExReq miss latency
system.l2.ReadExReq_avg_miss_latency::total 88379.579444                       # average ReadExReq miss latency
system.l2.ReadCleanReq_avg_miss_latency::.cpu.inst 108310.596150                       # average ReadCleanReq miss latency
system.l2.ReadCleanReq_avg_miss_latency::total 108310.596150                       # average ReadCleanReq miss latency
system.l2.ReadSharedReq_avg_miss_latency::.cpu.data 82564.593146                       # average ReadSharedReq miss latency
system.l2.ReadSharedReq_avg_miss_latency::total 82564.593146                       # average ReadSharedReq miss latency
system.l2.demand_avg_miss_latency::.cpu.inst 108310.596150                       # average overall miss latency
system.l2.demand_avg_miss_latency::.cpu.data 83931.324640                       # average overall miss latency
system.l2.demand_avg_miss_latency::total 83938.561135                       # average overall miss latency
system.l2.overall_avg_miss_latency::.cpu.inst 108310.596150                       # average overall miss latency
system.l2.overall_avg_miss_latency::.cpu.data 83931.324640                       # average overall miss latency
system.l2.overall_avg_miss_latency::total 83938.561135                       # average overall miss latency
system.l2.blocked_cycles::no_mshrs                  0                       # number of cycles access was blocked
system.l2.blocked_cycles::no_targets                0                       # number of cycles access was blocked
system.l2.blocked::no_mshrs                         0                       # number of cycles access was blocked
system.l2.blocked::no_targets                       0                       # number of cycles access was blocked
system.l2.avg_blocked_cycles::no_mshrs            nan                       # average number of cycles each access was blocked
system.l2.avg_blocked_cycles::no_targets          nan                       # average number of cycles each access was blocked
system.l2.writebacks::.writebacks            10392013                       # number of writebacks
system.l2.writebacks::total                  10392013                       # number of writebacks
system.l2.ReadCleanReq_mshr_hits::.cpu.inst            1                       # number of ReadCleanReq MSHR hits
system.l2.ReadCleanReq_mshr_hits::total             1                       # number of ReadCleanReq MSHR hits
system.l2.demand_mshr_hits::.cpu.inst               1                       # number of demand (read+write) MSHR hits
system.l2.demand_mshr_hits::total                   1                       # number of demand (read+write) MSHR hits
system.l2.overall_mshr_hits::.cpu.inst              1                       # number of overall MSHR hits
system.l2.overall_mshr_hits::total                  1                       # number of overall MSHR hits
system.l2.CleanEvict_mshr_misses::.writebacks           74                       # number of CleanEvict MSHR misses
system.l2.CleanEvict_mshr_misses::total            74                       # number of CleanEvict MSHR misses
system.l2.ReadExReq_mshr_misses::.cpu.data      4235776                       # number of ReadExReq MSHR misses
system.l2.ReadExReq_mshr_misses::total        4235776                       # number of ReadExReq MSHR misses
system.l2.ReadCleanReq_mshr_misses::.cpu.inst         5350                       # number of ReadCleanReq MSHR misses
system.l2.ReadCleanReq_mshr_misses::total         5350                       # number of ReadCleanReq MSHR misses
system.l2.ReadSharedReq_mshr_misses::.cpu.data     13786037                       # number of ReadSharedReq MSHR misses
system.l2.ReadSharedReq_mshr_misses::total     13786037                       # number of ReadSharedReq MSHR misses
system.l2.InvalidateReq_mshr_misses::.cpu.data      1418717                       # number of InvalidateReq MSHR misses
system.l2.InvalidateReq_mshr_misses::total      1418717                       # number of InvalidateReq MSHR misses
system.l2.demand_mshr_misses::.cpu.inst          5350                       # number of demand (read+write) MSHR misses
system.l2.demand_mshr_misses::.cpu.data      18021813                       # number of demand (read+write) MSHR misses
system.l2.demand_mshr_misses::total          18027163                       # number of demand (read+write) MSHR misses
system.l2.overall_mshr_misses::.cpu.inst         5350                       # number of overall MSHR misses
system.l2.overall_mshr_misses::.cpu.data     18021813                       # number of overall MSHR misses
system.l2.overall_mshr_misses::total         18027163                       # number of overall MSHR misses
system.l2.ReadExReq_mshr_miss_latency::.cpu.data 331419905128                       # number of ReadExReq MSHR miss cycles
system.l2.ReadExReq_mshr_miss_latency::total 331419905128                       # number of ReadExReq MSHR miss cycles
system.l2.ReadCleanReq_mshr_miss_latency::.cpu.inst    525039877                       # number of ReadCleanReq MSHR miss cycles
system.l2.ReadCleanReq_mshr_miss_latency::total    525039877                       # number of ReadCleanReq MSHR miss cycles
system.l2.ReadSharedReq_mshr_miss_latency::.cpu.data 998160532000                       # number of ReadSharedReq MSHR miss cycles
system.l2.ReadSharedReq_mshr_miss_latency::total 998160532000                       # number of ReadSharedReq MSHR miss cycles
system.l2.InvalidateReq_mshr_miss_latency::.cpu.data  24326436236                       # number of InvalidateReq MSHR miss cycles
system.l2.InvalidateReq_mshr_miss_latency::total  24326436236                       # number of InvalidateReq MSHR miss cycles
system.l2.demand_mshr_miss_latency::.cpu.inst    525039877                       # number of demand (read+write) MSHR miss cycles
system.l2.demand_mshr_miss_latency::.cpu.data 1329580437128                       # number of demand (read+write) MSHR miss cycles
system.l2.demand_mshr_miss_latency::total 1330105477005                       # number of demand (read+write) MSHR miss cycles
system.l2.overall_mshr_miss_latency::.cpu.inst    525039877                       # number of overall MSHR miss cycles
system.l2.overall_mshr_miss_latency::.cpu.data 1329580437128                       # number of overall MSHR miss cycles
system.l2.overall_mshr_miss_latency::total 1330105477005                       # number of overall MSHR miss cycles
system.l2.CleanEvict_mshr_miss_rate::.writebacks          inf                       # mshr miss rate for CleanEvict accesses
system.l2.CleanEvict_mshr_miss_rate::total          inf                       # mshr miss rate for CleanEvict accesses
system.l2.ReadExReq_mshr_miss_rate::.cpu.data     0.924622                       # mshr miss rate for ReadExReq accesses
system.l2.ReadExReq_mshr_miss_rate::total     0.924622                       # mshr miss rate for ReadExReq accesses
system.l2.ReadCleanReq_mshr_miss_rate::.cpu.inst     0.392401                       # mshr miss rate for ReadCleanReq accesses
system.l2.ReadCleanReq_mshr_miss_rate::total     0.392401                       # mshr miss rate for ReadCleanReq accesses
system.l2.ReadSharedReq_mshr_miss_rate::.cpu.data     0.616984                       # mshr miss rate for ReadSharedReq accesses
system.l2.ReadSharedReq_mshr_miss_rate::total     0.616984                       # mshr miss rate for ReadSharedReq accesses
system.l2.InvalidateReq_mshr_miss_rate::.cpu.data     0.981350                       # mshr miss rate for InvalidateReq accesses
system.l2.InvalidateReq_mshr_miss_rate::total     0.981350                       # mshr miss rate for InvalidateReq accesses
system.l2.demand_mshr_miss_rate::.cpu.inst     0.392401                       # mshr miss rate for demand accesses
system.l2.demand_mshr_miss_rate::.cpu.data     0.669326                       # mshr miss rate for demand accesses
system.l2.demand_mshr_miss_rate::total       0.669186                       # mshr miss rate for demand accesses
system.l2.overall_mshr_miss_rate::.cpu.inst     0.392401                       # mshr miss rate for overall accesses
system.l2.overall_mshr_miss_rate::.cpu.data     0.669326                       # mshr miss rate for overall accesses
system.l2.overall_mshr_miss_rate::total      0.669186                       # mshr miss rate for overall accesses
system.l2.ReadExReq_avg_mshr_miss_latency::.cpu.data 78243.019727                       # average ReadExReq mshr miss latency
system.l2.ReadExReq_avg_mshr_miss_latency::total 78243.019727                       # average ReadExReq mshr miss latency
system.l2.ReadCleanReq_avg_mshr_miss_latency::.cpu.inst 98138.294766                       # average ReadCleanReq mshr miss latency
system.l2.ReadCleanReq_avg_mshr_miss_latency::total 98138.294766                       # average ReadCleanReq mshr miss latency
system.l2.ReadSharedReq_avg_mshr_miss_latency::.cpu.data 72403.732269                       # average ReadSharedReq mshr miss latency
system.l2.ReadSharedReq_avg_mshr_miss_latency::total 72403.732269                       # average ReadSharedReq mshr miss latency
system.l2.InvalidateReq_avg_mshr_miss_latency::.cpu.data 17146.785607                       # average InvalidateReq mshr miss latency
system.l2.InvalidateReq_avg_mshr_miss_latency::total 17146.785607                       # average InvalidateReq mshr miss latency
system.l2.demand_avg_mshr_miss_latency::.cpu.inst 98138.294766                       # average overall mshr miss latency
system.l2.demand_avg_mshr_miss_latency::.cpu.data 73776.175412                       # average overall mshr miss latency
system.l2.demand_avg_mshr_miss_latency::total 73783.405465                       # average overall mshr miss latency
system.l2.overall_avg_mshr_miss_latency::.cpu.inst 98138.294766                       # average overall mshr miss latency
system.l2.overall_avg_mshr_miss_latency::.cpu.data 73776.175412                       # average overall mshr miss latency
system.l2.overall_avg_mshr_miss_latency::total 73783.405465                       # average overall mshr miss latency
system.l2.replacements                       19434913                       # number of replacements
system.membus.snoop_filter.tot_requests      38875436                       # Total number of requests made to the snoop filter.
system.membus.snoop_filter.hit_single_requests     19429557                       # Number of requests hitting in the snoop filter with a single holder of the requested data.
system.membus.snoop_filter.hit_multi_requests            0                       # Number of requests hitting in the snoop filter with multiple (>1) holders of the requested data.
system.membus.snoop_filter.tot_snoops               0                       # Total number of snoops made to the snoop filter.
system.membus.snoop_filter.hit_single_snoops            0                       # Number of snoops hitting in the snoop filter with a single holder of the requested data.
system.membus.snoop_filter.hit_multi_snoops            0                       # Number of snoops hitting in the snoop filter with multiple (>1) holders of the requested data.
system.membus.pwrStateResidencyTicks::UNDEFINED 2935868848500                       # Cumulative time (in ticks) in various power states
system.membus.trans_dist::ReadResp           13791385                       # Transaction distribution
system.membus.trans_dist::WritebackDirty     10392013                       # Transaction distribution
system.membus.trans_dist::CleanEvict          9037386                       # Transaction distribution
system.membus.trans_dist::ReadExReq           4235776                       # Transaction distribution
system.membus.trans_dist::ReadExResp          4235776                       # Transaction distribution
system.membus.trans_dist::ReadSharedReq      13791387                       # Transaction distribution
system.membus.trans_dist::InvalidateReq       1418717                       # Transaction distribution
system.membus.pkt_count_system.l2.mem_side::system.mem_ctrls.port     56902440                       # Packet count per connected master and slave (bytes)
system.membus.pkt_count::total               56902440                       # Packet count per connected master and slave (bytes)
system.membus.pkt_size_system.l2.mem_side::system.mem_ctrls.port   1818827136                       # Cumulative packet size per connected master and slave (bytes)
system.membus.pkt_size::total              1818827136                       # Cumulative packet size per connected master and slave (bytes)
system.membus.snoops                                0                       # Total snoops (count)
system.membus.snoopTraffic                          0                       # Total snoop traffic (bytes)
system.membus.snoop_fanout::samples          19445880                       # Request fanout histogram
system.membus.snoop_fanout::mean                    0                       # Request fanout histogram
system.membus.snoop_fanout::stdev                   0                       # Request fanout histogram
system.membus.snoop_fanout::underflows              0      0.00%      0.00% # Request fanout histogram
system.membus.snoop_fanout::0                19445880    100.00%    100.00% # Request fanout histogram
system.membus.snoop_fanout::1                       0      0.00%    100.00% # Request fanout histogram
system.membus.snoop_fanout::overflows               0      0.00%    100.00% # Request fanout histogram
system.membus.snoop_fanout::min_value               0                       # Request fanout histogram
system.membus.snoop_fanout::max_value               0                       # Request fanout histogram
system.membus.snoop_fanout::total            19445880                       # Request fanout histogram
system.membus.reqLayer0.occupancy         57698645851                       # Layer occupancy (ticks)
system.membus.reqLayer0.utilization               2.0                       # Layer utilization (%)
system.membus.respLayer1.occupancy        61413645147                       # Layer occupancy (ticks)
system.membus.respLayer1.utilization              2.1                       # Layer utilization (%)
system.tol2bus.snoop_filter.tot_requests     56768387                       # Total number of requests made to the snoop filter.
system.tol2bus.snoop_filter.hit_single_requests     28383729                       # Number of requests hitting in the snoop filter with a single holder of the requested data.
system.tol2bus.snoop_filter.hit_multi_requests            3                       # Number of requests hitting in the snoop filter with multiple (>1) holders of the requested data.
system.tol2bus.snoop_filter.tot_snoops           5588                       # Total number of snoops made to the snoop filter.
system.tol2bus.snoop_filter.hit_single_snoops         5588                       # Number of snoops hitting in the snoop filter with a single holder of the requested data.
system.tol2bus.snoop_filter.hit_multi_snoops            0                       # Number of snoops hitting in the snoop filter with multiple (>1) holders of the requested data.
system.tol2bus.pwrStateResidencyTicks::UNDEFINED 2935868848500                       # Cumulative time (in ticks) in various power states
system.tol2bus.trans_dist::ReadResp          22357862                       # Transaction distribution
system.tol2bus.trans_dist::WritebackDirty     28622726                       # Transaction distribution
system.tol2bus.trans_dist::WritebackClean        13120                       # Transaction distribution
system.tol2bus.trans_dist::CleanEvict        19182675                       # Transaction distribution
system.tol2bus.trans_dist::ReadExReq          4581091                       # Transaction distribution
system.tol2bus.trans_dist::ReadExResp         4581091                       # Transaction distribution
system.tol2bus.trans_dist::ReadCleanReq         13634                       # Transaction distribution
system.tol2bus.trans_dist::ReadSharedReq     22344230                       # Transaction distribution
system.tol2bus.trans_dist::InvalidateReq      1445679                       # Transaction distribution
system.tol2bus.trans_dist::InvalidateResp      1445679                       # Transaction distribution
system.tol2bus.pkt_count_system.cpu.icache.mem_side::system.l2.cpu_side        40386                       # Packet count per connected master and slave (bytes)
system.tol2bus.pkt_count_system.cpu.dcache.mem_side::system.l2.cpu_side     85112488                       # Packet count per connected master and slave (bytes)
system.tol2bus.pkt_count::total              85152874                       # Packet count per connected master and slave (bytes)
system.tol2bus.pkt_size_system.cpu.icache.mem_side::system.l2.cpu_side      1712128                       # Cumulative packet size per connected master and slave (bytes)
system.tol2bus.pkt_size_system.cpu.dcache.mem_side::system.l2.cpu_side   2889986176                       # Cumulative packet size per connected master and slave (bytes)
system.tol2bus.pkt_size::total             2891698304                       # Cumulative packet size per connected master and slave (bytes)
system.tol2bus.snoops                        19434913                       # Total snoops (count)
system.tol2bus.snoopTraffic                 665088832                       # Total snoop traffic (bytes)
system.tol2bus.snoop_fanout::samples         47819573                       # Request fanout histogram
system.tol2bus.snoop_fanout::mean            0.000117                       # Request fanout histogram
system.tol2bus.snoop_fanout::stdev           0.010814                       # Request fanout histogram
system.tol2bus.snoop_fanout::underflows             0      0.00%      0.00% # Request fanout histogram
system.tol2bus.snoop_fanout::0               47813980     99.99%     99.99% # Request fanout histogram
system.tol2bus.snoop_fanout::1                   5593      0.01%    100.00% # Request fanout histogram
system.tol2bus.snoop_fanout::2                      0      0.00%    100.00% # Request fanout histogram
system.tol2bus.snoop_fanout::overflows              0      0.00%    100.00% # Request fanout histogram
system.tol2bus.snoop_fanout::min_value              0                       # Request fanout histogram
system.tol2bus.snoop_fanout::max_value              1                       # Request fanout histogram
system.tol2bus.snoop_fanout::total           47819573                       # Request fanout histogram
system.tol2bus.reqLayer0.occupancy        46628065153                       # Layer occupancy (ticks)
system.tol2bus.reqLayer0.utilization              1.6                       # Layer utilization (%)
system.tol2bus.respLayer0.occupancy          20451493                       # Layer occupancy (ticks)
system.tol2bus.respLayer0.utilization             0.0                       # Layer utilization (%)
system.tol2bus.respLayer1.occupancy       41110850270                       # Layer occupancy (ticks)
system.tol2bus.respLayer1.utilization             1.4                       # Layer utilization (%)

---------- End Simulation Statistics   ----------
