
---------- Begin Simulation Statistics ----------
sim_seconds                                  3.040036                       # Number of seconds simulated
sim_ticks                                3040035563500                       # Number of ticks simulated
final_tick                               3040035563500                       # Number of ticks from beginning of simulation (restored from checkpoints and never reset)
sim_freq                                 1000000000000                       # Frequency of simulated ticks
host_inst_rate                                 457584                       # Simulator instruction rate (inst/s)
host_op_rate                                   493915                       # Simulator op (including micro ops) rate (op/s)
host_tick_rate                              500814039                       # Simulator tick rate (ticks/s)
host_mem_usage                                4409944                       # Number of bytes of host memory used
host_seconds                                  6070.19                       # Real time elapsed on the host
sim_insts                                  2777623961                       # Number of instructions simulated
sim_ops                                    2998155667                       # Number of ops (including micro ops) simulated
system.voltage_domain.voltage                       1                       # Voltage in Volts
system.clk_domain.clock                           625                       # Clock period in ticks
system.mem_ctrls.pwrStateResidencyTicks::UNDEFINED 3040035563500                       # Cumulative time (in ticks) in various power states
system.mem_ctrls.bytes_read::.cpu.inst         344960                       # Number of bytes read from this memory
system.mem_ctrls.bytes_read::.cpu.data     1153422144                       # Number of bytes read from this memory
system.mem_ctrls.bytes_read::total         1153767104                       # Number of bytes read from this memory
system.mem_ctrls.bytes_inst_read::.cpu.inst       344960                       # Number of instructions bytes read from this memory
system.mem_ctrls.bytes_inst_read::total        344960                       # Number of instructions bytes read from this memory
system.mem_ctrls.bytes_written::.writebacks    665090816                       # Number of bytes written to this memory
system.mem_ctrls.bytes_written::total       665090816                       # Number of bytes written to this memory
system.mem_ctrls.num_reads::.cpu.inst            5390                       # Number of read requests responded to by this memory
system.mem_ctrls.num_reads::.cpu.data        18022221                       # Number of read requests responded to by this memory
system.mem_ctrls.num_reads::total            18027611                       # Number of read requests responded to by this memory
system.mem_ctrls.num_writes::.writebacks     10392044                       # Number of write requests responded to by this memory
system.mem_ctrls.num_writes::total           10392044                       # Number of write requests responded to by this memory
system.mem_ctrls.bw_read::.cpu.inst            113472                       # Total read bandwidth from this memory (bytes/s)
system.mem_ctrls.bw_read::.cpu.data         379410740                       # Total read bandwidth from this memory (bytes/s)
system.mem_ctrls.bw_read::total             379524213                       # Total read bandwidth from this memory (bytes/s)
system.mem_ctrls.bw_inst_read::.cpu.inst       113472                       # Instruction read bandwidth from this memory (bytes/s)
system.mem_ctrls.bw_inst_read::total           113472                       # Instruction read bandwidth from this memory (bytes/s)
system.mem_ctrls.bw_write::.writebacks      218777314                       # Write bandwidth from this memory (bytes/s)
system.mem_ctrls.bw_write::total            218777314                       # Write bandwidth from this memory (bytes/s)
system.mem_ctrls.bw_total::.writebacks      218777314                       # Total bandwidth to/from this memory (bytes/s)
system.mem_ctrls.bw_total::.cpu.inst           113472                       # Total bandwidth to/from this memory (bytes/s)
system.mem_ctrls.bw_total::.cpu.data        379410740                       # Total bandwidth to/from this memory (bytes/s)
system.mem_ctrls.bw_total::total            598301527                       # Total bandwidth to/from this memory (bytes/s)
system.mem_ctrls.avgPriority_.writebacks::samples  10392030.00                       # Average QoS priority value for accepted requests
system.mem_ctrls.avgPriority_.cpu.inst::samples      5391.00                       # Average QoS priority value for accepted requests
system.mem_ctrls.avgPriority_.cpu.data::samples  18004979.00                       # Average QoS priority value for accepted requests
system.mem_ctrls.priorityMinLatency      0.000000017492                       # per QoS priority minimum request to response latency (s)
system.mem_ctrls.priorityMaxLatency      0.091797410652                       # per QoS priority maximum request to response latency (s)
system.mem_ctrls.numReadWriteTurnArounds       578648                       # Number of turnarounds from READ to WRITE
system.mem_ctrls.numWriteReadTurnArounds       578648                       # Number of turnarounds from WRITE to READ
system.mem_ctrls.numStayReadState            45574272                       # Number of times bus staying in READ state
system.mem_ctrls.numStayWriteState            9895190                       # Number of times bus staying in WRITE state
system.mem_ctrls.readReqs                    18027612                       # Number of read requests accepted
system.mem_ctrls.writeReqs                   10392044                       # Number of write requests accepted
system.mem_ctrls.readBursts                  18027612                       # Number of DRAM read bursts, including those serviced by the write queue
system.mem_ctrls.writeBursts                 10392044                       # Number of DRAM write bursts, including those merged in the write queue
system.mem_ctrls.bytesReadDRAM             1152663680                       # Total number of bytes read from DRAM
system.mem_ctrls.bytesReadWrQ                 1103488                       # Total number of bytes read from write queue
system.mem_ctrls.bytesWritten               665085824                       # Total number of bytes written to DRAM
system.mem_ctrls.bytesReadSys              1153767168                       # Total read bytes from the system interface side
system.mem_ctrls.bytesWrittenSys            665090816                       # Total written bytes from the system interface side
system.mem_ctrls.servicedByWrQ                  17242                       # Number of DRAM read bursts serviced by the write queue
system.mem_ctrls.mergedWrBursts                    14                       # Number of DRAM write bursts merged with an existing one
system.mem_ctrls.neitherReadNorWriteReqs            0                       # Number of requests that are neither read nor write
system.mem_ctrls.perBankRdBursts::0            573642                       # Per bank write bursts
system.mem_ctrls.perBankRdBursts::1            573516                       # Per bank write bursts
system.mem_ctrls.perBankRdBursts::2            573415                       # Per bank write bursts
system.mem_ctrls.perBankRdBursts::3            573903                       # Per bank write bursts
system.mem_ctrls.perBankRdBursts::4            571125                       # Per bank write bursts
system.mem_ctrls.perBankRdBursts::5            569542                       # Per bank write bursts
system.mem_ctrls.perBankRdBursts::6            561398                       # Per bank write bursts
system.mem_ctrls.perBankRdBursts::7            556134                       # Per bank write bursts
system.mem_ctrls.perBankRdBursts::8            555003                       # Per bank write bursts
system.mem_ctrls.perBankRdBursts::9            556001                       # Per bank write bursts
system.mem_ctrls.perBankRdBursts::10           557288                       # Per bank write bursts
system.mem_ctrls.perBankRdBursts::11           557170                       # Per bank write bursts
system.mem_ctrls.perBankRdBursts::12           557328                       # Per bank write bursts
system.mem_ctrls.perBankRdBursts::13           555336                       # Per bank write bursts
system.mem_ctrls.perBankRdBursts::14           554885                       # Per bank write bursts
system.mem_ctrls.perBankRdBursts::15           555462                       # Per bank write bursts
system.mem_ctrls.perBankRdBursts::16           554587                       # Per bank write bursts
system.mem_ctrls.perBankRdBursts::17           555250                       # Per bank write bursts
system.mem_ctrls.perBankRdBursts::18           555285                       # Per bank write bursts
system.mem_ctrls.perBankRdBursts::19           557666                       # Per bank write bursts
system.mem_ctrls.perBankRdBursts::20           557650                       # Per bank write bursts
system.mem_ctrls.perBankRdBursts::21           562390                       # Per bank write bursts
system.mem_ctrls.perBankRdBursts::22           564537                       # Per bank write bursts
system.mem_ctrls.perBankRdBursts::23           565149                       # Per bank write bursts
system.mem_ctrls.perBankRdBursts::24           564460                       # Per bank write bursts
system.mem_ctrls.perBankRdBursts::25           564150                       # Per bank write bursts
system.mem_ctrls.perBankRdBursts::26           565308                       # Per bank write bursts
system.mem_ctrls.perBankRdBursts::27           565910                       # Per bank write bursts
system.mem_ctrls.perBankRdBursts::28           567590                       # Per bank write bursts
system.mem_ctrls.perBankRdBursts::29           570182                       # Per bank write bursts
system.mem_ctrls.perBankRdBursts::30           569311                       # Per bank write bursts
system.mem_ctrls.perBankRdBursts::31           569797                       # Per bank write bursts
system.mem_ctrls.perBankWrBursts::0            326085                       # Per bank write bursts
system.mem_ctrls.perBankWrBursts::1            326067                       # Per bank write bursts
system.mem_ctrls.perBankWrBursts::2            326440                       # Per bank write bursts
system.mem_ctrls.perBankWrBursts::3            326556                       # Per bank write bursts
system.mem_ctrls.perBankWrBursts::4            325065                       # Per bank write bursts
system.mem_ctrls.perBankWrBursts::5            324816                       # Per bank write bursts
system.mem_ctrls.perBankWrBursts::6            323104                       # Per bank write bursts
system.mem_ctrls.perBankWrBursts::7            321988                       # Per bank write bursts
system.mem_ctrls.perBankWrBursts::8            321234                       # Per bank write bursts
system.mem_ctrls.perBankWrBursts::9            322105                       # Per bank write bursts
system.mem_ctrls.perBankWrBursts::10           322494                       # Per bank write bursts
system.mem_ctrls.perBankWrBursts::11           322330                       # Per bank write bursts
system.mem_ctrls.perBankWrBursts::12           322323                       # Per bank write bursts
system.mem_ctrls.perBankWrBursts::13           321576                       # Per bank write bursts
system.mem_ctrls.perBankWrBursts::14           320611                       # Per bank write bursts
system.mem_ctrls.perBankWrBursts::15           321296                       # Per bank write bursts
system.mem_ctrls.perBankWrBursts::16           320858                       # Per bank write bursts
system.mem_ctrls.perBankWrBursts::17           320706                       # Per bank write bursts
system.mem_ctrls.perBankWrBursts::18           321139                       # Per bank write bursts
system.mem_ctrls.perBankWrBursts::19           322585                       # Per bank write bursts
system.mem_ctrls.perBankWrBursts::20           322366                       # Per bank write bursts
system.mem_ctrls.perBankWrBursts::21           325951                       # Per bank write bursts
system.mem_ctrls.perBankWrBursts::22           328575                       # Per bank write bursts
system.mem_ctrls.perBankWrBursts::23           328555                       # Per bank write bursts
system.mem_ctrls.perBankWrBursts::24           328301                       # Per bank write bursts
system.mem_ctrls.perBankWrBursts::25           328772                       # Per bank write bursts
system.mem_ctrls.perBankWrBursts::26           329082                       # Per bank write bursts
system.mem_ctrls.perBankWrBursts::27           330620                       # Per bank write bursts
system.mem_ctrls.perBankWrBursts::28           330573                       # Per bank write bursts
system.mem_ctrls.perBankWrBursts::29           328851                       # Per bank write bursts
system.mem_ctrls.perBankWrBursts::30           325315                       # Per bank write bursts
system.mem_ctrls.perBankWrBursts::31           325627                       # Per bank write bursts
system.mem_ctrls.numRdRetry                         0                       # Number of times read queue was full causing retry
system.mem_ctrls.numWrRetry                       203                       # Number of times write queue was full causing retry
system.mem_ctrls.totGap                  3040035546500                       # Total gap between requests
system.mem_ctrls.readPktSize::0                     0                       # Read request sizes (log2)
system.mem_ctrls.readPktSize::1                     0                       # Read request sizes (log2)
system.mem_ctrls.readPktSize::2                     0                       # Read request sizes (log2)
system.mem_ctrls.readPktSize::3                     0                       # Read request sizes (log2)
system.mem_ctrls.readPktSize::4                     0                       # Read request sizes (log2)
system.mem_ctrls.readPktSize::5                     0                       # Read request sizes (log2)
system.mem_ctrls.readPktSize::6              18027612                       # Read request sizes (log2)
system.mem_ctrls.writePktSize::0                    0                       # Write request sizes (log2)
system.mem_ctrls.writePktSize::1                    0                       # Write request sizes (log2)
system.mem_ctrls.writePktSize::2                    0                       # Write request sizes (log2)
system.mem_ctrls.writePktSize::3                    0                       # Write request sizes (log2)
system.mem_ctrls.writePktSize::4                    0                       # Write request sizes (log2)
system.mem_ctrls.writePktSize::5                    0                       # Write request sizes (log2)
system.mem_ctrls.writePktSize::6             10392044                       # Write request sizes (log2)
system.mem_ctrls.rdQLenPdf::0                14641957                       # What read queue length does an incoming req see
system.mem_ctrls.rdQLenPdf::1                 3362812                       # What read queue length does an incoming req see
system.mem_ctrls.rdQLenPdf::2                    4212                       # What read queue length does an incoming req see
system.mem_ctrls.rdQLenPdf::3                    1376                       # What read queue length does an incoming req see
system.mem_ctrls.rdQLenPdf::4                      12                       # What read queue length does an incoming req see
system.mem_ctrls.rdQLenPdf::5                       1                       # What read queue length does an incoming req see
system.mem_ctrls.rdQLenPdf::6                       0                       # What read queue length does an incoming req see
system.mem_ctrls.rdQLenPdf::7                       0                       # What read queue length does an incoming req see
system.mem_ctrls.rdQLenPdf::8                       0                       # What read queue length does an incoming req see
system.mem_ctrls.rdQLenPdf::9                       0                       # What read queue length does an incoming req see
system.mem_ctrls.rdQLenPdf::10                      0                       # What read queue length does an incoming req see
system.mem_ctrls.rdQLenPdf::11                      0                       # What read queue length does an incoming req see
system.mem_ctrls.rdQLenPdf::12                      0                       # What read queue length does an incoming req see
system.mem_ctrls.rdQLenPdf::13                      0                       # What read queue length does an incoming req see
system.mem_ctrls.rdQLenPdf::14                      0                       # What read queue length does an incoming req see
system.mem_ctrls.rdQLenPdf::15                      0                       # What read queue length does an incoming req see
system.mem_ctrls.rdQLenPdf::16                      0                       # What read queue length does an incoming req see
system.mem_ctrls.rdQLenPdf::17                      0                       # What read queue length does an incoming req see
system.mem_ctrls.rdQLenPdf::18                      0                       # What read queue length does an incoming req see
system.mem_ctrls.rdQLenPdf::19                      0                       # What read queue length does an incoming req see
system.mem_ctrls.rdQLenPdf::20                      0                       # What read queue length does an incoming req see
system.mem_ctrls.rdQLenPdf::21                      0                       # What read queue length does an incoming req see
system.mem_ctrls.rdQLenPdf::22                      0                       # What read queue length does an incoming req see
system.mem_ctrls.rdQLenPdf::23                      0                       # What read queue length does an incoming req see
system.mem_ctrls.rdQLenPdf::24                      0                       # What read queue length does an incoming req see
system.mem_ctrls.rdQLenPdf::25                      0                       # What read queue length does an incoming req see
system.mem_ctrls.rdQLenPdf::26                      0                       # What read queue length does an incoming req see
system.mem_ctrls.rdQLenPdf::27                      0                       # What read queue length does an incoming req see
system.mem_ctrls.rdQLenPdf::28                      0                       # What read queue length does an incoming req see
system.mem_ctrls.rdQLenPdf::29                      0                       # What read queue length does an incoming req see
system.mem_ctrls.rdQLenPdf::30                      0                       # What read queue length does an incoming req see
system.mem_ctrls.rdQLenPdf::31                      0                       # What read queue length does an incoming req see
system.mem_ctrls.rdQLenPdf::32                      0                       # What read queue length does an incoming req see
system.mem_ctrls.rdQLenPdf::33                      0                       # What read queue length does an incoming req see
system.mem_ctrls.rdQLenPdf::34                      0                       # What read queue length does an incoming req see
system.mem_ctrls.rdQLenPdf::35                      0                       # What read queue length does an incoming req see
system.mem_ctrls.rdQLenPdf::36                      0                       # What read queue length does an incoming req see
system.mem_ctrls.rdQLenPdf::37                      0                       # What read queue length does an incoming req see
system.mem_ctrls.rdQLenPdf::38                      0                       # What read queue length does an incoming req see
system.mem_ctrls.rdQLenPdf::39                      0                       # What read queue length does an incoming req see
system.mem_ctrls.rdQLenPdf::40                      0                       # What read queue length does an incoming req see
system.mem_ctrls.rdQLenPdf::41                      0                       # What read queue length does an incoming req see
system.mem_ctrls.rdQLenPdf::42                      0                       # What read queue length does an incoming req see
system.mem_ctrls.rdQLenPdf::43                      0                       # What read queue length does an incoming req see
system.mem_ctrls.rdQLenPdf::44                      0                       # What read queue length does an incoming req see
system.mem_ctrls.rdQLenPdf::45                      0                       # What read queue length does an incoming req see
system.mem_ctrls.rdQLenPdf::46                      0                       # What read queue length does an incoming req see
system.mem_ctrls.rdQLenPdf::47                      0                       # What read queue length does an incoming req see
system.mem_ctrls.rdQLenPdf::48                      0                       # What read queue length does an incoming req see
system.mem_ctrls.rdQLenPdf::49                      0                       # What read queue length does an incoming req see
system.mem_ctrls.rdQLenPdf::50                      0                       # What read queue length does an incoming req see
system.mem_ctrls.rdQLenPdf::51                      0                       # What read queue length does an incoming req see
system.mem_ctrls.rdQLenPdf::52                      0                       # What read queue length does an incoming req see
system.mem_ctrls.rdQLenPdf::53                      0                       # What read queue length does an incoming req see
system.mem_ctrls.rdQLenPdf::54                      0                       # What read queue length does an incoming req see
system.mem_ctrls.rdQLenPdf::55                      0                       # What read queue length does an incoming req see
system.mem_ctrls.rdQLenPdf::56                      0                       # What read queue length does an incoming req see
system.mem_ctrls.rdQLenPdf::57                      0                       # What read queue length does an incoming req see
system.mem_ctrls.rdQLenPdf::58                      0                       # What read queue length does an incoming req see
system.mem_ctrls.rdQLenPdf::59                      0                       # What read queue length does an incoming req see
system.mem_ctrls.rdQLenPdf::60                      0                       # What read queue length does an incoming req see
system.mem_ctrls.rdQLenPdf::61                      0                       # What read queue length does an incoming req see
system.mem_ctrls.rdQLenPdf::62                      0                       # What read queue length does an incoming req see
system.mem_ctrls.rdQLenPdf::63                      0                       # What read queue length does an incoming req see
system.mem_ctrls.wrQLenPdf::0                       1                       # What write queue length does an incoming req see
system.mem_ctrls.wrQLenPdf::1                       1                       # What write queue length does an incoming req see
system.mem_ctrls.wrQLenPdf::2                       1                       # What write queue length does an incoming req see
system.mem_ctrls.wrQLenPdf::3                       1                       # What write queue length does an incoming req see
system.mem_ctrls.wrQLenPdf::4                       1                       # What write queue length does an incoming req see
system.mem_ctrls.wrQLenPdf::5                       1                       # What write queue length does an incoming req see
system.mem_ctrls.wrQLenPdf::6                       1                       # What write queue length does an incoming req see
system.mem_ctrls.wrQLenPdf::7                       1                       # What write queue length does an incoming req see
system.mem_ctrls.wrQLenPdf::8                       1                       # What write queue length does an incoming req see
system.mem_ctrls.wrQLenPdf::9                       1                       # What write queue length does an incoming req see
system.mem_ctrls.wrQLenPdf::10                      1                       # What write queue length does an incoming req see
system.mem_ctrls.wrQLenPdf::11                      1                       # What write queue length does an incoming req see
system.mem_ctrls.wrQLenPdf::12                      1                       # What write queue length does an incoming req see
system.mem_ctrls.wrQLenPdf::13                      1                       # What write queue length does an incoming req see
system.mem_ctrls.wrQLenPdf::14                      1                       # What write queue length does an incoming req see
system.mem_ctrls.wrQLenPdf::15                      1                       # What write queue length does an incoming req see
system.mem_ctrls.wrQLenPdf::16                      1                       # What write queue length does an incoming req see
system.mem_ctrls.wrQLenPdf::17                      1                       # What write queue length does an incoming req see
system.mem_ctrls.wrQLenPdf::18                      1                       # What write queue length does an incoming req see
system.mem_ctrls.wrQLenPdf::19                      1                       # What write queue length does an incoming req see
system.mem_ctrls.wrQLenPdf::20                      1                       # What write queue length does an incoming req see
system.mem_ctrls.wrQLenPdf::21                      1                       # What write queue length does an incoming req see
system.mem_ctrls.wrQLenPdf::22                      1                       # What write queue length does an incoming req see
system.mem_ctrls.wrQLenPdf::23                      1                       # What write queue length does an incoming req see
system.mem_ctrls.wrQLenPdf::24                      1                       # What write queue length does an incoming req see
system.mem_ctrls.wrQLenPdf::25                      1                       # What write queue length does an incoming req see
system.mem_ctrls.wrQLenPdf::26                      1                       # What write queue length does an incoming req see
system.mem_ctrls.wrQLenPdf::27                      1                       # What write queue length does an incoming req see
system.mem_ctrls.wrQLenPdf::28                      1                       # What write queue length does an incoming req see
system.mem_ctrls.wrQLenPdf::29                      1                       # What write queue length does an incoming req see
system.mem_ctrls.wrQLenPdf::30                      1                       # What write queue length does an incoming req see
system.mem_ctrls.wrQLenPdf::31                      1                       # What write queue length does an incoming req see
system.mem_ctrls.wrQLenPdf::32                      1                       # What write queue length does an incoming req see
system.mem_ctrls.wrQLenPdf::33                      1                       # What write queue length does an incoming req see
system.mem_ctrls.wrQLenPdf::34                      1                       # What write queue length does an incoming req see
system.mem_ctrls.wrQLenPdf::35                      1                       # What write queue length does an incoming req see
system.mem_ctrls.wrQLenPdf::36                      1                       # What write queue length does an incoming req see
system.mem_ctrls.wrQLenPdf::37                      1                       # What write queue length does an incoming req see
system.mem_ctrls.wrQLenPdf::38                      1                       # What write queue length does an incoming req see
system.mem_ctrls.wrQLenPdf::39                      1                       # What write queue length does an incoming req see
system.mem_ctrls.wrQLenPdf::40                      1                       # What write queue length does an incoming req see
system.mem_ctrls.wrQLenPdf::41                      1                       # What write queue length does an incoming req see
system.mem_ctrls.wrQLenPdf::42                      1                       # What write queue length does an incoming req see
system.mem_ctrls.wrQLenPdf::43                      1                       # What write queue length does an incoming req see
system.mem_ctrls.wrQLenPdf::44                      1                       # What write queue length does an incoming req see
system.mem_ctrls.wrQLenPdf::45                      1                       # What write queue length does an incoming req see
system.mem_ctrls.wrQLenPdf::46                      1                       # What write queue length does an incoming req see
system.mem_ctrls.wrQLenPdf::47                 179035                       # What write queue length does an incoming req see
system.mem_ctrls.wrQLenPdf::48                 211201                       # What write queue length does an incoming req see
system.mem_ctrls.wrQLenPdf::49                 616146                       # What write queue length does an incoming req see
system.mem_ctrls.wrQLenPdf::50                 624231                       # What write queue length does an incoming req see
system.mem_ctrls.wrQLenPdf::51                 633468                       # What write queue length does an incoming req see
system.mem_ctrls.wrQLenPdf::52                 609582                       # What write queue length does an incoming req see
system.mem_ctrls.wrQLenPdf::53                 622976                       # What write queue length does an incoming req see
system.mem_ctrls.wrQLenPdf::54                 628416                       # What write queue length does an incoming req see
system.mem_ctrls.wrQLenPdf::55                 641131                       # What write queue length does an incoming req see
system.mem_ctrls.wrQLenPdf::56                 616597                       # What write queue length does an incoming req see
system.mem_ctrls.wrQLenPdf::57                 599334                       # What write queue length does an incoming req see
system.mem_ctrls.wrQLenPdf::58                 602868                       # What write queue length does an incoming req see
system.mem_ctrls.wrQLenPdf::59                 602142                       # What write queue length does an incoming req see
system.mem_ctrls.wrQLenPdf::60                 595727                       # What write queue length does an incoming req see
system.mem_ctrls.wrQLenPdf::61                 589097                       # What write queue length does an incoming req see
system.mem_ctrls.wrQLenPdf::62                 593975                       # What write queue length does an incoming req see
system.mem_ctrls.wrQLenPdf::63                 601503                       # What write queue length does an incoming req see
system.mem_ctrls.wrQLenPdf::64                 600349                       # What write queue length does an incoming req see
system.mem_ctrls.wrQLenPdf::65                  16137                       # What write queue length does an incoming req see
system.mem_ctrls.wrQLenPdf::66                   9862                       # What write queue length does an incoming req see
system.mem_ctrls.wrQLenPdf::67                  12493                       # What write queue length does an incoming req see
system.mem_ctrls.wrQLenPdf::68                   6270                       # What write queue length does an incoming req see
system.mem_ctrls.wrQLenPdf::69                   4000                       # What write queue length does an incoming req see
system.mem_ctrls.wrQLenPdf::70                   3578                       # What write queue length does an incoming req see
system.mem_ctrls.wrQLenPdf::71                   3303                       # What write queue length does an incoming req see
system.mem_ctrls.wrQLenPdf::72                   2392                       # What write queue length does an incoming req see
system.mem_ctrls.wrQLenPdf::73                   2412                       # What write queue length does an incoming req see
system.mem_ctrls.wrQLenPdf::74                   2674                       # What write queue length does an incoming req see
system.mem_ctrls.wrQLenPdf::75                   2807                       # What write queue length does an incoming req see
system.mem_ctrls.wrQLenPdf::76                   4624                       # What write queue length does an incoming req see
system.mem_ctrls.wrQLenPdf::77                   3715                       # What write queue length does an incoming req see
system.mem_ctrls.wrQLenPdf::78                   3586                       # What write queue length does an incoming req see
system.mem_ctrls.wrQLenPdf::79                   5636                       # What write queue length does an incoming req see
system.mem_ctrls.wrQLenPdf::80                   5296                       # What write queue length does an incoming req see
system.mem_ctrls.wrQLenPdf::81                   2263                       # What write queue length does an incoming req see
system.mem_ctrls.wrQLenPdf::82                   1708                       # What write queue length does an incoming req see
system.mem_ctrls.wrQLenPdf::83                   2805                       # What write queue length does an incoming req see
system.mem_ctrls.wrQLenPdf::84                   3505                       # What write queue length does an incoming req see
system.mem_ctrls.wrQLenPdf::85                   2942                       # What write queue length does an incoming req see
system.mem_ctrls.wrQLenPdf::86                   2461                       # What write queue length does an incoming req see
system.mem_ctrls.wrQLenPdf::87                   2146                       # What write queue length does an incoming req see
system.mem_ctrls.wrQLenPdf::88                   2835                       # What write queue length does an incoming req see
system.mem_ctrls.wrQLenPdf::89                   6383                       # What write queue length does an incoming req see
system.mem_ctrls.wrQLenPdf::90                   4810                       # What write queue length does an incoming req see
system.mem_ctrls.wrQLenPdf::91                   4678                       # What write queue length does an incoming req see
system.mem_ctrls.wrQLenPdf::92                   4236                       # What write queue length does an incoming req see
system.mem_ctrls.wrQLenPdf::93                   1926                       # What write queue length does an incoming req see
system.mem_ctrls.wrQLenPdf::94                   2191                       # What write queue length does an incoming req see
system.mem_ctrls.wrQLenPdf::95                   3024                       # What write queue length does an incoming req see
system.mem_ctrls.wrQLenPdf::96                   6206                       # What write queue length does an incoming req see
system.mem_ctrls.wrQLenPdf::97                   3113                       # What write queue length does an incoming req see
system.mem_ctrls.wrQLenPdf::98                   2741                       # What write queue length does an incoming req see
system.mem_ctrls.wrQLenPdf::99                   4377                       # What write queue length does an incoming req see
system.mem_ctrls.wrQLenPdf::100                  5677                       # What write queue length does an incoming req see
system.mem_ctrls.wrQLenPdf::101                  5670                       # What write queue length does an incoming req see
system.mem_ctrls.wrQLenPdf::102                  2739                       # What write queue length does an incoming req see
system.mem_ctrls.wrQLenPdf::103                  4227                       # What write queue length does an incoming req see
system.mem_ctrls.wrQLenPdf::104                  2382                       # What write queue length does an incoming req see
system.mem_ctrls.wrQLenPdf::105                  3647                       # What write queue length does an incoming req see
system.mem_ctrls.wrQLenPdf::106                  3148                       # What write queue length does an incoming req see
system.mem_ctrls.wrQLenPdf::107                  3399                       # What write queue length does an incoming req see
system.mem_ctrls.wrQLenPdf::108                  4171                       # What write queue length does an incoming req see
system.mem_ctrls.wrQLenPdf::109                  2951                       # What write queue length does an incoming req see
system.mem_ctrls.wrQLenPdf::110                  3852                       # What write queue length does an incoming req see
system.mem_ctrls.wrQLenPdf::111                  3731                       # What write queue length does an incoming req see
system.mem_ctrls.wrQLenPdf::112                  2474                       # What write queue length does an incoming req see
system.mem_ctrls.wrQLenPdf::113                  3428                       # What write queue length does an incoming req see
system.mem_ctrls.wrQLenPdf::114                  1926                       # What write queue length does an incoming req see
system.mem_ctrls.wrQLenPdf::115                  4051                       # What write queue length does an incoming req see
system.mem_ctrls.wrQLenPdf::116                  1679                       # What write queue length does an incoming req see
system.mem_ctrls.wrQLenPdf::117                  3666                       # What write queue length does an incoming req see
system.mem_ctrls.wrQLenPdf::118                  1706                       # What write queue length does an incoming req see
system.mem_ctrls.wrQLenPdf::119                  2366                       # What write queue length does an incoming req see
system.mem_ctrls.wrQLenPdf::120                  1895                       # What write queue length does an incoming req see
system.mem_ctrls.wrQLenPdf::121                   868                       # What write queue length does an incoming req see
system.mem_ctrls.wrQLenPdf::122                   426                       # What write queue length does an incoming req see
system.mem_ctrls.wrQLenPdf::123                   294                       # What write queue length does an incoming req see
system.mem_ctrls.wrQLenPdf::124                   159                       # What write queue length does an incoming req see
system.mem_ctrls.wrQLenPdf::125                   128                       # What write queue length does an incoming req see
system.mem_ctrls.wrQLenPdf::126                    77                       # What write queue length does an incoming req see
system.mem_ctrls.wrQLenPdf::127                   333                       # What write queue length does an incoming req see
system.mem_ctrls.bytesPerActivate::samples      3081793                       # Bytes accessed per row activation
system.mem_ctrls.bytesPerActivate::mean    589.834606                       # Bytes accessed per row activation
system.mem_ctrls.bytesPerActivate::gmean   412.201225                       # Bytes accessed per row activation
system.mem_ctrls.bytesPerActivate::stdev   373.343088                       # Bytes accessed per row activation
system.mem_ctrls.bytesPerActivate::0-127       486949     15.80%     15.80% # Bytes accessed per row activation
system.mem_ctrls.bytesPerActivate::128-255       290350      9.42%     25.22% # Bytes accessed per row activation
system.mem_ctrls.bytesPerActivate::256-383       183784      5.96%     31.19% # Bytes accessed per row activation
system.mem_ctrls.bytesPerActivate::384-511       314734     10.21%     41.40% # Bytes accessed per row activation
system.mem_ctrls.bytesPerActivate::512-639       365602     11.86%     53.26% # Bytes accessed per row activation
system.mem_ctrls.bytesPerActivate::640-767       188807      6.13%     59.39% # Bytes accessed per row activation
system.mem_ctrls.bytesPerActivate::768-895       138740      4.50%     63.89% # Bytes accessed per row activation
system.mem_ctrls.bytesPerActivate::896-1023       102623      3.33%     67.22% # Bytes accessed per row activation
system.mem_ctrls.bytesPerActivate::1024-1151      1010204     32.78%    100.00% # Bytes accessed per row activation
system.mem_ctrls.bytesPerActivate::total      3081793                       # Bytes accessed per row activation
system.mem_ctrls.rdPerTurnAround::samples       578648                       # Reads before turning the bus around for writes
system.mem_ctrls.rdPerTurnAround::mean      31.124863                       # Reads before turning the bus around for writes
system.mem_ctrls.rdPerTurnAround::stdev    202.281624                       # Reads before turning the bus around for writes
system.mem_ctrls.rdPerTurnAround::0-255        576473     99.62%     99.62% # Reads before turning the bus around for writes
system.mem_ctrls.rdPerTurnAround::256-511         1141      0.20%     99.82% # Reads before turning the bus around for writes
system.mem_ctrls.rdPerTurnAround::512-767           99      0.02%     99.84% # Reads before turning the bus around for writes
system.mem_ctrls.rdPerTurnAround::768-1023           57      0.01%     99.85% # Reads before turning the bus around for writes
system.mem_ctrls.rdPerTurnAround::1024-1279           35      0.01%     99.85% # Reads before turning the bus around for writes
system.mem_ctrls.rdPerTurnAround::1280-1535           48      0.01%     99.86% # Reads before turning the bus around for writes
system.mem_ctrls.rdPerTurnAround::1536-1791           27      0.00%     99.87% # Reads before turning the bus around for writes
system.mem_ctrls.rdPerTurnAround::1792-2047           58      0.01%     99.88% # Reads before turning the bus around for writes
system.mem_ctrls.rdPerTurnAround::2048-2303           38      0.01%     99.88% # Reads before turning the bus around for writes
system.mem_ctrls.rdPerTurnAround::2304-2559           25      0.00%     99.89% # Reads before turning the bus around for writes
system.mem_ctrls.rdPerTurnAround::2560-2815           51      0.01%     99.90% # Reads before turning the bus around for writes
system.mem_ctrls.rdPerTurnAround::2816-3071           20      0.00%     99.90% # Reads before turning the bus around for writes
system.mem_ctrls.rdPerTurnAround::3072-3327           35      0.01%     99.91% # Reads before turning the bus around for writes
system.mem_ctrls.rdPerTurnAround::3328-3583           24      0.00%     99.91% # Reads before turning the bus around for writes
system.mem_ctrls.rdPerTurnAround::3584-3839           33      0.01%     99.92% # Reads before turning the bus around for writes
system.mem_ctrls.rdPerTurnAround::3840-4095           36      0.01%     99.92% # Reads before turning the bus around for writes
system.mem_ctrls.rdPerTurnAround::4096-4351           26      0.00%     99.93% # Reads before turning the bus around for writes
system.mem_ctrls.rdPerTurnAround::4352-4607           34      0.01%     99.93% # Reads before turning the bus around for writes
system.mem_ctrls.rdPerTurnAround::4608-4863           18      0.00%     99.94% # Reads before turning the bus around for writes
system.mem_ctrls.rdPerTurnAround::4864-5119           38      0.01%     99.94% # Reads before turning the bus around for writes
system.mem_ctrls.rdPerTurnAround::5120-5375           37      0.01%     99.95% # Reads before turning the bus around for writes
system.mem_ctrls.rdPerTurnAround::5376-5631           36      0.01%     99.96% # Reads before turning the bus around for writes
system.mem_ctrls.rdPerTurnAround::5632-5887            7      0.00%     99.96% # Reads before turning the bus around for writes
system.mem_ctrls.rdPerTurnAround::5888-6143           40      0.01%     99.96% # Reads before turning the bus around for writes
system.mem_ctrls.rdPerTurnAround::6144-6399           39      0.01%     99.97% # Reads before turning the bus around for writes
system.mem_ctrls.rdPerTurnAround::6400-6655           17      0.00%     99.97% # Reads before turning the bus around for writes
system.mem_ctrls.rdPerTurnAround::6656-6911           18      0.00%     99.98% # Reads before turning the bus around for writes
system.mem_ctrls.rdPerTurnAround::6912-7167            4      0.00%     99.98% # Reads before turning the bus around for writes
system.mem_ctrls.rdPerTurnAround::7168-7423           24      0.00%     99.98% # Reads before turning the bus around for writes
system.mem_ctrls.rdPerTurnAround::7424-7679           21      0.00%     99.98% # Reads before turning the bus around for writes
system.mem_ctrls.rdPerTurnAround::7680-7935           16      0.00%     99.99% # Reads before turning the bus around for writes
system.mem_ctrls.rdPerTurnAround::7936-8191            7      0.00%     99.99% # Reads before turning the bus around for writes
system.mem_ctrls.rdPerTurnAround::8192-8447            3      0.00%     99.99% # Reads before turning the bus around for writes
system.mem_ctrls.rdPerTurnAround::8448-8703            1      0.00%     99.99% # Reads before turning the bus around for writes
system.mem_ctrls.rdPerTurnAround::8704-8959            1      0.00%     99.99% # Reads before turning the bus around for writes
system.mem_ctrls.rdPerTurnAround::9216-9471            9      0.00%     99.99% # Reads before turning the bus around for writes
system.mem_ctrls.rdPerTurnAround::9728-9983            1      0.00%     99.99% # Reads before turning the bus around for writes
system.mem_ctrls.rdPerTurnAround::9984-10239           40      0.01%    100.00% # Reads before turning the bus around for writes
system.mem_ctrls.rdPerTurnAround::10240-10495            2      0.00%    100.00% # Reads before turning the bus around for writes
system.mem_ctrls.rdPerTurnAround::13312-13567            9      0.00%    100.00% # Reads before turning the bus around for writes
system.mem_ctrls.rdPerTurnAround::total        578648                       # Reads before turning the bus around for writes
system.mem_ctrls.wrPerTurnAround::samples       578648                       # Writes before turning the bus around for reads
system.mem_ctrls.wrPerTurnAround::mean      17.959046                       # Writes before turning the bus around for reads
system.mem_ctrls.wrPerTurnAround::gmean     17.232461                       # Writes before turning the bus around for reads
system.mem_ctrls.wrPerTurnAround::stdev     11.417354                       # Writes before turning the bus around for reads
system.mem_ctrls.wrPerTurnAround::16-23        552089     95.41%     95.41% # Writes before turning the bus around for reads
system.mem_ctrls.wrPerTurnAround::24-31          2955      0.51%     95.92% # Writes before turning the bus around for reads
system.mem_ctrls.wrPerTurnAround::32-39         16546      2.86%     98.78% # Writes before turning the bus around for reads
system.mem_ctrls.wrPerTurnAround::40-47          2167      0.37%     99.15% # Writes before turning the bus around for reads
system.mem_ctrls.wrPerTurnAround::48-55          2338      0.40%     99.56% # Writes before turning the bus around for reads
system.mem_ctrls.wrPerTurnAround::56-63           101      0.02%     99.58% # Writes before turning the bus around for reads
system.mem_ctrls.wrPerTurnAround::64-71           804      0.14%     99.72% # Writes before turning the bus around for reads
system.mem_ctrls.wrPerTurnAround::72-79           118      0.02%     99.74% # Writes before turning the bus around for reads
system.mem_ctrls.wrPerTurnAround::80-87            28      0.00%     99.74% # Writes before turning the bus around for reads
system.mem_ctrls.wrPerTurnAround::88-95           247      0.04%     99.78% # Writes before turning the bus around for reads
system.mem_ctrls.wrPerTurnAround::96-103            8      0.00%     99.78% # Writes before turning the bus around for reads
system.mem_ctrls.wrPerTurnAround::104-111           10      0.00%     99.79% # Writes before turning the bus around for reads
system.mem_ctrls.wrPerTurnAround::112-119            8      0.00%     99.79% # Writes before turning the bus around for reads
system.mem_ctrls.wrPerTurnAround::120-127            6      0.00%     99.79% # Writes before turning the bus around for reads
system.mem_ctrls.wrPerTurnAround::128-135            7      0.00%     99.79% # Writes before turning the bus around for reads
system.mem_ctrls.wrPerTurnAround::136-143            5      0.00%     99.79% # Writes before turning the bus around for reads
system.mem_ctrls.wrPerTurnAround::144-151           11      0.00%     99.79% # Writes before turning the bus around for reads
system.mem_ctrls.wrPerTurnAround::152-159           14      0.00%     99.80% # Writes before turning the bus around for reads
system.mem_ctrls.wrPerTurnAround::160-167           18      0.00%     99.80% # Writes before turning the bus around for reads
system.mem_ctrls.wrPerTurnAround::168-175           13      0.00%     99.80% # Writes before turning the bus around for reads
system.mem_ctrls.wrPerTurnAround::176-183            6      0.00%     99.80% # Writes before turning the bus around for reads
system.mem_ctrls.wrPerTurnAround::184-191           10      0.00%     99.80% # Writes before turning the bus around for reads
system.mem_ctrls.wrPerTurnAround::192-199            8      0.00%     99.80% # Writes before turning the bus around for reads
system.mem_ctrls.wrPerTurnAround::200-207           12      0.00%     99.81% # Writes before turning the bus around for reads
system.mem_ctrls.wrPerTurnAround::208-215           10      0.00%     99.81% # Writes before turning the bus around for reads
system.mem_ctrls.wrPerTurnAround::216-223           12      0.00%     99.81% # Writes before turning the bus around for reads
system.mem_ctrls.wrPerTurnAround::224-231           25      0.00%     99.81% # Writes before turning the bus around for reads
system.mem_ctrls.wrPerTurnAround::232-239            6      0.00%     99.82% # Writes before turning the bus around for reads
system.mem_ctrls.wrPerTurnAround::240-247          714      0.12%     99.94% # Writes before turning the bus around for reads
system.mem_ctrls.wrPerTurnAround::248-255          114      0.02%     99.96% # Writes before turning the bus around for reads
system.mem_ctrls.wrPerTurnAround::256-263          106      0.02%     99.98% # Writes before turning the bus around for reads
system.mem_ctrls.wrPerTurnAround::264-271          113      0.02%    100.00% # Writes before turning the bus around for reads
system.mem_ctrls.wrPerTurnAround::272-279            9      0.00%    100.00% # Writes before turning the bus around for reads
system.mem_ctrls.wrPerTurnAround::288-295            1      0.00%    100.00% # Writes before turning the bus around for reads
system.mem_ctrls.wrPerTurnAround::296-303            1      0.00%    100.00% # Writes before turning the bus around for reads
system.mem_ctrls.wrPerTurnAround::312-319            2      0.00%    100.00% # Writes before turning the bus around for reads
system.mem_ctrls.wrPerTurnAround::344-351            2      0.00%    100.00% # Writes before turning the bus around for reads
system.mem_ctrls.wrPerTurnAround::352-359            2      0.00%    100.00% # Writes before turning the bus around for reads
system.mem_ctrls.wrPerTurnAround::360-367            1      0.00%    100.00% # Writes before turning the bus around for reads
system.mem_ctrls.wrPerTurnAround::528-535            1      0.00%    100.00% # Writes before turning the bus around for reads
system.mem_ctrls.wrPerTurnAround::total        578648                       # Writes before turning the bus around for reads
system.mem_ctrls.masterReadBytes::.cpu.inst       345024                       # Per-master bytes read from memory
system.mem_ctrls.masterReadBytes::.cpu.data   1152318656                       # Per-master bytes read from memory
system.mem_ctrls.masterWriteBytes::.writebacks    665085824                       # Per-master bytes write to memory
system.mem_ctrls.masterReadRate::.cpu.inst 113493.409137218463                       # Per-master bytes read from memory rate (Bytes/sec)
system.mem_ctrls.masterReadRate::.cpu.data 379047755.176039099693                       # Per-master bytes read from memory rate (Bytes/sec)
system.mem_ctrls.masterWriteRate::.writebacks 218775672.227427870035                       # Per-master bytes write to memory rate (Bytes/sec)
system.mem_ctrls.masterReadAccesses::.cpu.inst         5391                       # Per-master read serviced memory accesses
system.mem_ctrls.masterReadAccesses::.cpu.data     18022221                       # Per-master read serviced memory accesses
system.mem_ctrls.masterWriteAccesses::.writebacks     10392044                       # Per-master write serviced memory accesses
system.mem_ctrls.masterReadTotalLat::.cpu.inst    300870262                       # Per-master read total memory access latency
system.mem_ctrls.masterReadTotalLat::.cpu.data 659861920127                       # Per-master read total memory access latency
system.mem_ctrls.masterWriteTotalLat::.writebacks 170238406743881                       # Per-master write total memory access latency
system.mem_ctrls.masterReadAvgLat::.cpu.inst     55809.73                       # Per-master read average memory access latency
system.mem_ctrls.masterReadAvgLat::.cpu.data     36613.80                       # Per-master read average memory access latency
system.mem_ctrls.masterWriteAvgLat::.writebacks  16381609.50                       # Per-master write average memory access latency
system.mem_ctrls.totQLat                 345125398349                       # Total ticks spent queuing
system.mem_ctrls.totMemAccLat            660162790389                       # Total ticks spent from burst creation until serviced by the DRAM
system.mem_ctrls.totBusLat                60010552840                       # Total ticks spent in databus transfers
system.mem_ctrls.avgQLat                     19162.59                       # Average queueing delay per DRAM burst
system.mem_ctrls.avgBusLat                    3332.00                       # Average bus latency per DRAM burst
system.mem_ctrls.avgMemAccLat                36654.59                       # Average memory access latency per DRAM burst
system.mem_ctrls.avgRdBW                       379.16                       # Average DRAM read bandwidth in MiByte/s
system.mem_ctrls.avgWrBW                       218.78                       # Average achieved write bandwidth in MiByte/s
system.mem_ctrls.avgRdBWSys                    379.52                       # Average system read bandwidth in MiByte/s
system.mem_ctrls.avgWrBWSys                    218.78                       # Average system write bandwidth in MiByte/s
system.mem_ctrls.peakBW                      19207.00                       # Theoretical peak bandwidth in MiByte/s
system.mem_ctrls.busUtil                         3.11                       # Data bus utilization in percentage
system.mem_ctrls.busUtilRead                     1.97                       # Data bus utilization in percentage for reads
system.mem_ctrls.busUtilWrite                    1.14                       # Data bus utilization in percentage for writes
system.mem_ctrls.avgRdQLen                       1.13                       # Average read queue length when enqueuing
system.mem_ctrls.avgWrQLen                      57.02                       # Average write queue length when enqueuing
system.mem_ctrls.readRowHits                 16036912                       # Number of row buffer hits during reads
system.mem_ctrls.writeRowHits                 9283621                       # Number of row buffer hits during writes
system.mem_ctrls.readRowHitRate                 89.04                       # Row buffer hit rate for reads
system.mem_ctrls.writeRowHitRate                89.33                       # Row buffer hit rate for writes
system.mem_ctrls.avgGap                     106969.47                       # Average gap between requests
system.mem_ctrls.pageHitRate                    89.15                       # Row buffer hit rate, read and write combined
system.mem_ctrls_0.actEnergy             4283836334.779603                       # Energy for activate commands per rank (pJ)
system.mem_ctrls_0.preEnergy             2891885012.438705                       # Energy for precharge commands per rank (pJ)
system.mem_ctrls_0.readEnergy            13816392531.484644                       # Energy for read commands per rank (pJ)
system.mem_ctrls_0.writeEnergy           7267030340.674670                       # Energy for write commands per rank (pJ)
system.mem_ctrls_0.refreshEnergy         62783362247.735252                       # Energy for refresh commands per rank (pJ)
system.mem_ctrls_0.actBackEnergy         60941326779.788025                       # Energy for active background per rank (pJ)
system.mem_ctrls_0.preBackEnergy         3467250384.858698                       # Energy for precharge background per rank (pJ)
system.mem_ctrls_0.actPowerDownEnergy    141664189300.931122                       # Energy for active power-down per rank (pJ)
system.mem_ctrls_0.prePowerDownEnergy    37640854933.018494                       # Energy for precharge power-down per rank (pJ)
system.mem_ctrls_0.selfRefreshEnergy     264459878121.243744                       # Energy for self refresh per rank (pJ)
system.mem_ctrls_0.totalEnergy           599460571646.611816                       # Total energy per rank (pJ)
system.mem_ctrls_0.averagePower            197.188671                       # Core power per rank (mW)
system.mem_ctrls_0.totalIdleTime         2779392203865                       # Total Idle time Per DRAM Rank
system.mem_ctrls_0.memoryStateTime::IDLE  14773245669                       # Time in different power states
system.mem_ctrls_0.memoryStateTime::REF   57570100000                       # Time in different power states
system.mem_ctrls_0.memoryStateTime::SREF 1745880760311                       # Time in different power states
system.mem_ctrls_0.memoryStateTime::PRE_PDN 313673667319                       # Time in different power states
system.mem_ctrls_0.memoryStateTime::ACT  188299715118                       # Time in different power states
system.mem_ctrls_0.memoryStateTime::ACT_PDN 719838075083                       # Time in different power states
system.mem_ctrls_1.actEnergy             4134242484.264248                       # Energy for activate commands per rank (pJ)
system.mem_ctrls_1.preEnergy             2790891071.514497                       # Energy for precharge commands per rank (pJ)
system.mem_ctrls_1.readEnergy            13500158767.607790                       # Energy for read commands per rank (pJ)
system.mem_ctrls_1.writeEnergy           7193938597.071063                       # Energy for write commands per rank (pJ)
system.mem_ctrls_1.refreshEnergy         60644729302.231926                       # Energy for refresh commands per rank (pJ)
system.mem_ctrls_1.actBackEnergy         59049551528.691277                       # Energy for active background per rank (pJ)
system.mem_ctrls_1.preBackEnergy         3401437624.497460                       # Energy for precharge background per rank (pJ)
system.mem_ctrls_1.actPowerDownEnergy    136576231590.415833                       # Energy for active power-down per rank (pJ)
system.mem_ctrls_1.prePowerDownEnergy    36432874218.663361                       # Energy for precharge power-down per rank (pJ)
system.mem_ctrls_1.selfRefreshEnergy     270655858856.204895                       # Energy for self refresh per rank (pJ)
system.mem_ctrls_1.totalEnergy           594623582936.677002                       # Total energy per rank (pJ)
system.mem_ctrls_1.averagePower            195.597575                       # Core power per rank (mW)
system.mem_ctrls_1.totalIdleTime         2787200244067                       # Total Idle time Per DRAM Rank
system.mem_ctrls_1.memoryStateTime::IDLE  14633353778                       # Time in different power states
system.mem_ctrls_1.memoryStateTime::REF   55609050000                       # Time in different power states
system.mem_ctrls_1.memoryStateTime::SREF 1789608779707                       # Time in different power states
system.mem_ctrls_1.memoryStateTime::PRE_PDN 303607320291                       # Time in different power states
system.mem_ctrls_1.memoryStateTime::ACT  182592915655                       # Time in different power states
system.mem_ctrls_1.memoryStateTime::ACT_PDN 693984144069                       # Time in different power states
system.mem_ctrls_2.actEnergy             4182243378.223361                       # Energy for activate commands per rank (pJ)
system.mem_ctrls_2.preEnergy             2823313575.989536                       # Energy for precharge commands per rank (pJ)
system.mem_ctrls_2.readEnergy            13573121083.002689                       # Energy for read commands per rank (pJ)
system.mem_ctrls_2.writeEnergy           7240797581.976962                       # Energy for write commands per rank (pJ)
system.mem_ctrls_2.refreshEnergy         61078333982.955070                       # Energy for refresh commands per rank (pJ)
system.mem_ctrls_2.actBackEnergy         59727511215.299797                       # Energy for active background per rank (pJ)
system.mem_ctrls_2.preBackEnergy         3430685504.663804                       # Energy for precharge background per rank (pJ)
system.mem_ctrls_2.actPowerDownEnergy    137372831462.959778                       # Energy for active power-down per rank (pJ)
system.mem_ctrls_2.prePowerDownEnergy    36689842190.341675                       # Energy for precharge power-down per rank (pJ)
system.mem_ctrls_2.selfRefreshEnergy     269470125413.375031                       # Energy for self refresh per rank (pJ)
system.mem_ctrls_2.totalEnergy           595817474058.795654                       # Total energy per rank (pJ)
system.mem_ctrls_2.averagePower            195.990297                       # Core power per rank (mW)
system.mem_ctrls_2.totalIdleTime         2784426907171                       # Total Idle time Per DRAM Rank
system.mem_ctrls_2.memoryStateTime::IDLE  14741989977                       # Time in different power states
system.mem_ctrls_2.memoryStateTime::REF   56006650000                       # Time in different power states
system.mem_ctrls_2.memoryStateTime::SREF 1780647612683                       # Time in different power states
system.mem_ctrls_2.memoryStateTime::PRE_PDN 305748685258                       # Time in different power states
system.mem_ctrls_2.memoryStateTime::ACT  184858457092                       # Time in different power states
system.mem_ctrls_2.memoryStateTime::ACT_PDN 698032168490                       # Time in different power states
system.mem_ctrls_3.actEnergy             4259638938.611039                       # Energy for activate commands per rank (pJ)
system.mem_ctrls_3.preEnergy             2875553731.565468                       # Energy for precharge commands per rank (pJ)
system.mem_ctrls_3.readEnergy            13767936109.808723                       # Energy for read commands per rank (pJ)
system.mem_ctrls_3.writeEnergy           7342548041.506519                       # Energy for write commands per rank (pJ)
system.mem_ctrls_3.refreshEnergy         61955467395.192558                       # Energy for refresh commands per rank (pJ)
system.mem_ctrls_3.actBackEnergy         60723686974.544426                       # Energy for active background per rank (pJ)
system.mem_ctrls_3.preBackEnergy         3463276151.188494                       # Energy for precharge background per rank (pJ)
system.mem_ctrls_3.actPowerDownEnergy    139383135731.467377                       # Energy for active power-down per rank (pJ)
system.mem_ctrls_3.prePowerDownEnergy    37125918889.859558                       # Energy for precharge power-down per rank (pJ)
system.mem_ctrls_3.selfRefreshEnergy     266946163516.115570                       # Energy for self refresh per rank (pJ)
system.mem_ctrls_3.totalEnergy           598074185293.075928                       # Total energy per rank (pJ)
system.mem_ctrls_3.averagePower            196.732628                       # Core power per rank (mW)
system.mem_ctrls_3.totalIdleTime         2780322790086                       # Total Idle time Per DRAM Rank
system.mem_ctrls_3.memoryStateTime::IDLE  14830010896                       # Time in different power states
system.mem_ctrls_3.memoryStateTime::REF   56810950000                       # Time in different power states
system.mem_ctrls_3.memoryStateTime::SREF 1762692781960                       # Time in different power states
system.mem_ctrls_3.memoryStateTime::PRE_PDN 309382787346                       # Time in different power states
system.mem_ctrls_3.memoryStateTime::ACT  188071630510                       # Time in different power states
system.mem_ctrls_3.memoryStateTime::ACT_PDN 708247402788                       # Time in different power states
system.pwrStateResidencyTicks::UNDEFINED 3040035563500                       # Cumulative time (in ticks) in various power states
system.cpu.branchPred.lookups               459949458                       # Number of BP lookups
system.cpu.branchPred.condPredicted         370027849                       # Number of conditional branches predicted
system.cpu.branchPred.condIncorrect           8028823                       # Number of conditional branches incorrect
system.cpu.branchPred.BTBLookups            316539221                       # Number of BTB lookups
system.cpu.branchPred.BTBHits               305314408                       # Number of BTB hits
system.cpu.branchPred.BTBCorrect                    0                       # Number of correct BTB predictions (this stat may not work properly.
system.cpu.branchPred.BTBHitPct             96.453895                       # BTB Hit Percentage
system.cpu.branchPred.usedRAS                37299207                       # Number of times the RAS was used to get a target.
system.cpu.branchPred.RASInCorrect                  8                       # Number of incorrect RAS predictions.
system.cpu.branchPred.indirectLookups            3977                       # Number of indirect predictor lookups.
system.cpu.branchPred.indirectHits               2803                       # Number of indirect target hits.
system.cpu.branchPred.indirectMisses             1174                       # Number of indirect misses.
system.cpu.branchPredindirectMispredicted          658                       # Number of mispredicted indirect branches.
system.cpu_voltage_domain.voltage                   1                       # Voltage in Volts
system.cpu_clk_domain.clock                       500                       # Clock period in ticks
system.cpu.dstage2_mmu.stage2_tlb.walker.pwrStateResidencyTicks::UNDEFINED 3040035563500                       # Cumulative time (in ticks) in various power states
system.cpu.dstage2_mmu.stage2_tlb.walker.walks            0                       # Table walker walks requested
system.cpu.dstage2_mmu.stage2_tlb.walker.walkRequestOrigin_Requested::Data            0                       # Table walker requests started/completed, data/inst
system.cpu.dstage2_mmu.stage2_tlb.walker.walkRequestOrigin_Requested::Inst            0                       # Table walker requests started/completed, data/inst
system.cpu.dstage2_mmu.stage2_tlb.walker.walkRequestOrigin_Requested::total            0                       # Table walker requests started/completed, data/inst
system.cpu.dstage2_mmu.stage2_tlb.walker.walkRequestOrigin_Completed::Data            0                       # Table walker requests started/completed, data/inst
system.cpu.dstage2_mmu.stage2_tlb.walker.walkRequestOrigin_Completed::Inst            0                       # Table walker requests started/completed, data/inst
system.cpu.dstage2_mmu.stage2_tlb.walker.walkRequestOrigin_Completed::total            0                       # Table walker requests started/completed, data/inst
system.cpu.dstage2_mmu.stage2_tlb.walker.walkRequestOrigin::total            0                       # Table walker requests started/completed, data/inst
system.cpu.dstage2_mmu.stage2_tlb.inst_hits            0                       # ITB inst hits
system.cpu.dstage2_mmu.stage2_tlb.inst_misses            0                       # ITB inst misses
system.cpu.dstage2_mmu.stage2_tlb.read_hits            0                       # DTB read hits
system.cpu.dstage2_mmu.stage2_tlb.read_misses            0                       # DTB read misses
system.cpu.dstage2_mmu.stage2_tlb.write_hits            0                       # DTB write hits
system.cpu.dstage2_mmu.stage2_tlb.write_misses            0                       # DTB write misses
system.cpu.dstage2_mmu.stage2_tlb.flush_tlb            0                       # Number of times complete TLB was flushed
system.cpu.dstage2_mmu.stage2_tlb.flush_tlb_mva            0                       # Number of times TLB was flushed by MVA
system.cpu.dstage2_mmu.stage2_tlb.flush_tlb_mva_asid            0                       # Number of times TLB was flushed by MVA & ASID
system.cpu.dstage2_mmu.stage2_tlb.flush_tlb_asid            0                       # Number of times TLB was flushed by ASID
system.cpu.dstage2_mmu.stage2_tlb.flush_entries            0                       # Number of entries that have been flushed from TLB
system.cpu.dstage2_mmu.stage2_tlb.align_faults            0                       # Number of TLB faults due to alignment restrictions
system.cpu.dstage2_mmu.stage2_tlb.prefetch_faults            0                       # Number of TLB faults due to prefetch
system.cpu.dstage2_mmu.stage2_tlb.domain_faults            0                       # Number of TLB faults due to domain restrictions
system.cpu.dstage2_mmu.stage2_tlb.perms_faults            0                       # Number of TLB faults due to permissions restrictions
system.cpu.dstage2_mmu.stage2_tlb.read_accesses            0                       # DTB read accesses
system.cpu.dstage2_mmu.stage2_tlb.write_accesses            0                       # DTB write accesses
system.cpu.dstage2_mmu.stage2_tlb.inst_accesses            0                       # ITB inst accesses
system.cpu.dstage2_mmu.stage2_tlb.hits              0                       # DTB hits
system.cpu.dstage2_mmu.stage2_tlb.misses            0                       # DTB misses
system.cpu.dstage2_mmu.stage2_tlb.accesses            0                       # DTB accesses
system.cpu.dtb.walker.pwrStateResidencyTicks::UNDEFINED 3040035563500                       # Cumulative time (in ticks) in various power states
system.cpu.dtb.walker.walks                         0                       # Table walker walks requested
system.cpu.dtb.walker.walkRequestOrigin_Requested::Data            0                       # Table walker requests started/completed, data/inst
system.cpu.dtb.walker.walkRequestOrigin_Requested::Inst            0                       # Table walker requests started/completed, data/inst
system.cpu.dtb.walker.walkRequestOrigin_Requested::total            0                       # Table walker requests started/completed, data/inst
system.cpu.dtb.walker.walkRequestOrigin_Completed::Data            0                       # Table walker requests started/completed, data/inst
system.cpu.dtb.walker.walkRequestOrigin_Completed::Inst            0                       # Table walker requests started/completed, data/inst
system.cpu.dtb.walker.walkRequestOrigin_Completed::total            0                       # Table walker requests started/completed, data/inst
system.cpu.dtb.walker.walkRequestOrigin::total            0                       # Table walker requests started/completed, data/inst
system.cpu.dtb.inst_hits                            0                       # ITB inst hits
system.cpu.dtb.inst_misses                          0                       # ITB inst misses
system.cpu.dtb.read_hits                            0                       # DTB read hits
system.cpu.dtb.read_misses                          0                       # DTB read misses
system.cpu.dtb.write_hits                           0                       # DTB write hits
system.cpu.dtb.write_misses                         0                       # DTB write misses
system.cpu.dtb.flush_tlb                            0                       # Number of times complete TLB was flushed
system.cpu.dtb.flush_tlb_mva                        0                       # Number of times TLB was flushed by MVA
system.cpu.dtb.flush_tlb_mva_asid                   0                       # Number of times TLB was flushed by MVA & ASID
system.cpu.dtb.flush_tlb_asid                       0                       # Number of times TLB was flushed by ASID
system.cpu.dtb.flush_entries                        0                       # Number of entries that have been flushed from TLB
system.cpu.dtb.align_faults                         0                       # Number of TLB faults due to alignment restrictions
system.cpu.dtb.prefetch_faults                      0                       # Number of TLB faults due to prefetch
system.cpu.dtb.domain_faults                        0                       # Number of TLB faults due to domain restrictions
system.cpu.dtb.perms_faults                         0                       # Number of TLB faults due to permissions restrictions
system.cpu.dtb.read_accesses                        0                       # DTB read accesses
system.cpu.dtb.write_accesses                       0                       # DTB write accesses
system.cpu.dtb.inst_accesses                        0                       # ITB inst accesses
system.cpu.dtb.hits                                 0                       # DTB hits
system.cpu.dtb.misses                               0                       # DTB misses
system.cpu.dtb.accesses                             0                       # DTB accesses
system.cpu.istage2_mmu.stage2_tlb.walker.pwrStateResidencyTicks::UNDEFINED 3040035563500                       # Cumulative time (in ticks) in various power states
system.cpu.istage2_mmu.stage2_tlb.walker.walks            0                       # Table walker walks requested
system.cpu.istage2_mmu.stage2_tlb.walker.walkRequestOrigin_Requested::Data            0                       # Table walker requests started/completed, data/inst
system.cpu.istage2_mmu.stage2_tlb.walker.walkRequestOrigin_Requested::Inst            0                       # Table walker requests started/completed, data/inst
system.cpu.istage2_mmu.stage2_tlb.walker.walkRequestOrigin_Requested::total            0                       # Table walker requests started/completed, data/inst
system.cpu.istage2_mmu.stage2_tlb.walker.walkRequestOrigin_Completed::Data            0                       # Table walker requests started/completed, data/inst
system.cpu.istage2_mmu.stage2_tlb.walker.walkRequestOrigin_Completed::Inst            0                       # Table walker requests started/completed, data/inst
system.cpu.istage2_mmu.stage2_tlb.walker.walkRequestOrigin_Completed::total            0                       # Table walker requests started/completed, data/inst
system.cpu.istage2_mmu.stage2_tlb.walker.walkRequestOrigin::total            0                       # Table walker requests started/completed, data/inst
system.cpu.istage2_mmu.stage2_tlb.inst_hits            0                       # ITB inst hits
system.cpu.istage2_mmu.stage2_tlb.inst_misses            0                       # ITB inst misses
system.cpu.istage2_mmu.stage2_tlb.read_hits            0                       # DTB read hits
system.cpu.istage2_mmu.stage2_tlb.read_misses            0                       # DTB read misses
system.cpu.istage2_mmu.stage2_tlb.write_hits            0                       # DTB write hits
system.cpu.istage2_mmu.stage2_tlb.write_misses            0                       # DTB write misses
system.cpu.istage2_mmu.stage2_tlb.flush_tlb            0                       # Number of times complete TLB was flushed
system.cpu.istage2_mmu.stage2_tlb.flush_tlb_mva            0                       # Number of times TLB was flushed by MVA
system.cpu.istage2_mmu.stage2_tlb.flush_tlb_mva_asid            0                       # Number of times TLB was flushed by MVA & ASID
system.cpu.istage2_mmu.stage2_tlb.flush_tlb_asid            0                       # Number of times TLB was flushed by ASID
system.cpu.istage2_mmu.stage2_tlb.flush_entries            0                       # Number of entries that have been flushed from TLB
system.cpu.istage2_mmu.stage2_tlb.align_faults            0                       # Number of TLB faults due to alignment restrictions
system.cpu.istage2_mmu.stage2_tlb.prefetch_faults            0                       # Number of TLB faults due to prefetch
system.cpu.istage2_mmu.stage2_tlb.domain_faults            0                       # Number of TLB faults due to domain restrictions
system.cpu.istage2_mmu.stage2_tlb.perms_faults            0                       # Number of TLB faults due to permissions restrictions
system.cpu.istage2_mmu.stage2_tlb.read_accesses            0                       # DTB read accesses
system.cpu.istage2_mmu.stage2_tlb.write_accesses            0                       # DTB write accesses
system.cpu.istage2_mmu.stage2_tlb.inst_accesses            0                       # ITB inst accesses
system.cpu.istage2_mmu.stage2_tlb.hits              0                       # DTB hits
system.cpu.istage2_mmu.stage2_tlb.misses            0                       # DTB misses
system.cpu.istage2_mmu.stage2_tlb.accesses            0                       # DTB accesses
system.cpu.itb.walker.pwrStateResidencyTicks::UNDEFINED 3040035563500                       # Cumulative time (in ticks) in various power states
system.cpu.itb.walker.walks                         0                       # Table walker walks requested
system.cpu.itb.walker.walkRequestOrigin_Requested::Data            0                       # Table walker requests started/completed, data/inst
system.cpu.itb.walker.walkRequestOrigin_Requested::Inst            0                       # Table walker requests started/completed, data/inst
system.cpu.itb.walker.walkRequestOrigin_Requested::total            0                       # Table walker requests started/completed, data/inst
system.cpu.itb.walker.walkRequestOrigin_Completed::Data            0                       # Table walker requests started/completed, data/inst
system.cpu.itb.walker.walkRequestOrigin_Completed::Inst            0                       # Table walker requests started/completed, data/inst
[...]
system.l2.demand_miss_rate::.cpu.data        0.669453                       # miss rate for demand accesses
system.l2.demand_miss_rate::total            0.669305                       # miss rate for demand accesses
system.l2.overall_miss_rate::.cpu.inst       0.385600                       # miss rate for overall accesses
system.l2.overall_miss_rate::.cpu.data       0.669453                       # miss rate for overall accesses
system.l2.overall_miss_rate::total           0.669305                       # miss rate for overall accesses
system.l2.ReadExReq_avg_miss_latency::.cpu.data 89130.531914                       # average ReadExReq miss latency
system.l2.ReadExReq_avg_miss_latency::total 89130.531914                       # average ReadExReq miss latency
system.l2.ReadCleanReq_avg_miss_latency::.cpu.inst 103446.875579                       # average ReadCleanReq miss latency
system.l2.ReadCleanReq_avg_miss_latency::total 103446.875579                       # average ReadCleanReq miss latency
system.l2.ReadSharedReq_avg_miss_latency::.cpu.data 82469.162654                       # average ReadSharedReq miss latency
system.l2.ReadSharedReq_avg_miss_latency::total 82469.162654                       # average ReadSharedReq miss latency
system.l2.demand_avg_miss_latency::.cpu.inst 103446.875579                       # average overall miss latency
system.l2.demand_avg_miss_latency::.cpu.data 84034.817684                       # average overall miss latency
system.l2.demand_avg_miss_latency::total 84040.624844                       # average overall miss latency
system.l2.overall_avg_miss_latency::.cpu.inst 103446.875579                       # average overall miss latency
system.l2.overall_avg_miss_latency::.cpu.data 84034.817684                       # average overall miss latency
system.l2.overall_avg_miss_latency::total 84040.624844                       # average overall miss latency
system.l2.blocked_cycles::no_mshrs                  0                       # number of cycles access was blocked
system.l2.blocked_cycles::no_targets                0                       # number of cycles access was blocked
system.l2.blocked::no_mshrs                         0                       # number of cycles access was blocked
system.l2.blocked::no_targets                       0                       # number of cycles access was blocked
system.l2.avg_blocked_cycles::no_mshrs            nan                       # average number of cycles each access was blocked
system.l2.avg_blocked_cycles::no_targets          nan                       # average number of cycles each access was blocked
system.l2.writebacks::.writebacks            10392044                       # number of writebacks
system.l2.writebacks::total                  10392044                       # number of writebacks
system.l2.ReadCleanReq_mshr_hits::.cpu.inst            1                       # number of ReadCleanReq MSHR hits
system.l2.ReadCleanReq_mshr_hits::total             1                       # number of ReadCleanReq MSHR hits
system.l2.demand_mshr_hits::.cpu.inst               1                       # number of demand (read+write) MSHR hits
system.l2.demand_mshr_hits::total                   1                       # number of demand (read+write) MSHR hits
system.l2.overall_mshr_hits::.cpu.inst              1                       # number of overall MSHR hits
system.l2.overall_mshr_hits::total                  1                       # number of overall MSHR hits
system.l2.CleanEvict_mshr_misses::.writebacks          113                       # number of CleanEvict MSHR misses
system.l2.CleanEvict_mshr_misses::total           113                       # number of CleanEvict MSHR misses
system.l2.ReadExReq_mshr_misses::.cpu.data      4235853                       # number of ReadExReq MSHR misses
system.l2.ReadExReq_mshr_misses::total        4235853                       # number of ReadExReq MSHR misses
system.l2.ReadCleanReq_mshr_misses::.cpu.inst         5392                       # number of ReadCleanReq MSHR misses
system.l2.ReadCleanReq_mshr_misses::total         5392                       # number of ReadCleanReq MSHR misses
system.l2.ReadSharedReq_mshr_misses::.cpu.data     13786368                       # number of ReadSharedReq MSHR misses
system.l2.ReadSharedReq_mshr_misses::total     13786368                       # number of ReadSharedReq MSHR misses
system.l2.InvalidateReq_mshr_misses::.cpu.data      1418719                       # number of InvalidateReq MSHR misses
system.l2.InvalidateReq_mshr_misses::total      1418719                       # number of InvalidateReq MSHR misses
system.l2.demand_mshr_misses::.cpu.inst          5392                       # number of demand (read+write) MSHR misses
system.l2.demand_mshr_misses::.cpu.data      18022221                       # number of demand (read+write) MSHR misses
system.l2.demand_mshr_misses::total          18027613                       # number of demand (read+write) MSHR misses
system.l2.overall_mshr_misses::.cpu.inst         5392                       # number of overall MSHR misses
system.l2.overall_mshr_misses::.cpu.data     18022221                       # number of overall MSHR misses
system.l2.overall_mshr_misses::total         18027613                       # number of overall MSHR misses
system.l2.ReadExReq_mshr_miss_latency::.cpu.data 334614452626                       # number of ReadExReq MSHR miss cycles
system.l2.ReadExReq_mshr_miss_latency::total 334614452626                       # number of ReadExReq MSHR miss cycles
system.l2.ReadCleanReq_mshr_miss_latency::.cpu.inst    502905252                       # number of ReadCleanReq MSHR miss cycles
system.l2.ReadCleanReq_mshr_miss_latency::total    502905252                       # number of ReadCleanReq MSHR miss cycles
system.l2.ReadSharedReq_mshr_miss_latency::.cpu.data 996883903375                       # number of ReadSharedReq MSHR miss cycles
system.l2.ReadSharedReq_mshr_miss_latency::total 996883903375                       # number of ReadSharedReq MSHR miss cycles
system.l2.InvalidateReq_mshr_miss_latency::.cpu.data  24286604500                       # number of InvalidateReq MSHR miss cycles
system.l2.InvalidateReq_mshr_miss_latency::total  24286604500                       # number of InvalidateReq MSHR miss cycles
system.l2.demand_mshr_miss_latency::.cpu.inst    502905252                       # number of demand (read+write) MSHR miss cycles
system.l2.demand_mshr_miss_latency::.cpu.data 1331498356001                       # number of demand (read+write) MSHR miss cycles
system.l2.demand_mshr_miss_latency::total 1332001261253                       # number of demand (read+write) MSHR miss cycles
system.l2.overall_mshr_miss_latency::.cpu.inst    502905252                       # number of overall MSHR miss cycles
system.l2.overall_mshr_miss_latency::.cpu.data 1331498356001                       # number of overall MSHR miss cycles
system.l2.overall_mshr_miss_latency::total 1332001261253                       # number of overall MSHR miss cycles
system.l2.CleanEvict_mshr_miss_rate::.writebacks          inf                       # mshr miss rate for CleanEvict accesses
system.l2.CleanEvict_mshr_miss_rate::total          inf                       # mshr miss rate for CleanEvict accesses
system.l2.ReadExReq_mshr_miss_rate::.cpu.data     0.924655                       # mshr miss rate for ReadExReq accesses
system.l2.ReadExReq_mshr_miss_rate::total     0.924655                       # mshr miss rate for ReadExReq accesses
system.l2.ReadCleanReq_mshr_miss_rate::.cpu.inst     0.385528                       # mshr miss rate for ReadCleanReq accesses
system.l2.ReadCleanReq_mshr_miss_rate::total     0.385528                       # mshr miss rate for ReadCleanReq accesses
system.l2.ReadSharedReq_mshr_miss_rate::.cpu.data     0.617121                       # mshr miss rate for ReadSharedReq accesses
system.l2.ReadSharedReq_mshr_miss_rate::total     0.617121                       # mshr miss rate for ReadSharedReq accesses
system.l2.InvalidateReq_mshr_miss_rate::.cpu.data     0.981349                       # mshr miss rate for InvalidateReq accesses
system.l2.InvalidateReq_mshr_miss_rate::total     0.981349                       # mshr miss rate for InvalidateReq accesses
system.l2.demand_mshr_miss_rate::.cpu.inst     0.385528                       # mshr miss rate for demand accesses
system.l2.demand_mshr_miss_rate::.cpu.data     0.669453                       # mshr miss rate for demand accesses
system.l2.demand_mshr_miss_rate::total       0.669305                       # mshr miss rate for demand accesses
system.l2.overall_mshr_miss_rate::.cpu.inst     0.385528                       # mshr miss rate for overall accesses
system.l2.overall_mshr_miss_rate::.cpu.data     0.669453                       # mshr miss rate for overall accesses
system.l2.overall_mshr_miss_rate::total      0.669305                       # mshr miss rate for overall accesses
system.l2.ReadExReq_avg_mshr_miss_latency::.cpu.data 78995.766054                       # average ReadExReq mshr miss latency
system.l2.ReadExReq_avg_mshr_miss_latency::total 78995.766054                       # average ReadExReq mshr miss latency
system.l2.ReadCleanReq_avg_mshr_miss_latency::.cpu.inst 93268.778190                       # average ReadCleanReq mshr miss latency
system.l2.ReadCleanReq_avg_mshr_miss_latency::total 93268.778190                       # average ReadCleanReq mshr miss latency
system.l2.ReadSharedReq_avg_mshr_miss_latency::.cpu.data 72309.393118                       # average ReadSharedReq mshr miss latency
system.l2.ReadSharedReq_avg_mshr_miss_latency::total 72309.393118                       # average ReadSharedReq mshr miss latency
system.l2.InvalidateReq_avg_mshr_miss_latency::.cpu.data 17118.685589                       # average InvalidateReq mshr miss latency
system.l2.InvalidateReq_avg_mshr_miss_latency::total 17118.685589                       # average InvalidateReq mshr miss latency
system.l2.demand_avg_mshr_miss_latency::.cpu.inst 93268.778190                       # average overall mshr miss latency
system.l2.demand_avg_mshr_miss_latency::.cpu.data 73880.924887                       # average overall mshr miss latency
system.l2.demand_avg_mshr_miss_latency::total 73886.723731                       # average overall mshr miss latency
system.l2.overall_avg_mshr_miss_latency::.cpu.inst 93268.778190                       # average overall mshr miss latency
system.l2.overall_avg_mshr_miss_latency::.cpu.data 73880.924887                       # average overall mshr miss latency
system.l2.overall_avg_mshr_miss_latency::total 73886.723731                       # average overall mshr miss latency
system.l2.replacements                       19435333                       # number of replacements
system.membus.snoop_filter.tot_requests      38876354                       # Total number of requests made to the snoop filter.
system.membus.snoop_filter.hit_single_requests     19430023                       # Number of requests hitting in the snoop filter with a single holder of the requested data.
system.membus.snoop_filter.hit_multi_requests            0                       # Number of requests hitting in the snoop filter with multiple (>1) holders of the requested data.
system.membus.snoop_filter.tot_snoops               0                       # Total number of snoops made to the snoop filter.
system.membus.snoop_filter.hit_single_snoops            0                       # Number of snoops hitting in the snoop filter with a single holder of the requested data.
system.membus.snoop_filter.hit_multi_snoops            0                       # Number of snoops hitting in the snoop filter with multiple (>1) holders of the requested data.
system.membus.pwrStateResidencyTicks::UNDEFINED 3040035563500                       # Cumulative time (in ticks) in various power states
system.membus.trans_dist::ReadResp           13791758                       # Transaction distribution
system.membus.trans_dist::WritebackDirty     10392044                       # Transaction distribution
system.membus.trans_dist::CleanEvict          9037776                       # Transaction distribution
system.membus.trans_dist::ReadExReq           4235853                       # Transaction distribution
system.membus.trans_dist::ReadExResp          4235853                       # Transaction distribution
system.membus.trans_dist::ReadSharedReq      13791759                       # Transaction distribution
system.membus.trans_dist::InvalidateReq       1418719                       # Transaction distribution
system.membus.pkt_count_system.l2.mem_side::system.mem_ctrls.port     56903762                       # Packet count per connected master and slave (bytes)
system.membus.pkt_count::total               56903762                       # Packet count per connected master and slave (bytes)
system.membus.pkt_size_system.l2.mem_side::system.mem_ctrls.port   1818857920                       # Cumulative packet size per connected master and slave (bytes)
system.membus.pkt_size::total              1818857920                       # Cumulative packet size per connected master and slave (bytes)
system.membus.snoops                                0                       # Total snoops (count)
system.membus.snoopTraffic                          0                       # Total snoop traffic (bytes)
system.membus.snoop_fanout::samples          19446331                       # Request fanout histogram
system.membus.snoop_fanout::mean                    0                       # Request fanout histogram
system.membus.snoop_fanout::stdev                   0                       # Request fanout histogram
system.membus.snoop_fanout::underflows              0      0.00%      0.00% # Request fanout histogram
system.membus.snoop_fanout::0                19446331    100.00%    100.00% # Request fanout histogram
system.membus.snoop_fanout::1                       0      0.00%    100.00% # Request fanout histogram
system.membus.snoop_fanout::overflows               0      0.00%    100.00% # Request fanout histogram
system.membus.snoop_fanout::min_value               0                       # Request fanout histogram
system.membus.snoop_fanout::max_value               0                       # Request fanout histogram
system.membus.snoop_fanout::total            19446331                       # Request fanout histogram
system.membus.reqLayer0.occupancy         57691324775                       # Layer occupancy (ticks)
system.membus.reqLayer0.utilization               1.9                       # Layer utilization (%)
system.membus.respLayer1.occupancy        61416727923                       # Layer occupancy (ticks)
system.membus.respLayer1.utilization              2.0                       # Layer utilization (%)
system.tol2bus.snoop_filter.tot_requests     56760204                       # Total number of requests made to the snoop filter.
system.tol2bus.snoop_filter.hit_single_requests     28379656                       # Number of requests hitting in the snoop filter with a single holder of the requested data.
system.tol2bus.snoop_filter.hit_multi_requests            3                       # Number of requests hitting in the snoop filter with multiple (>1) holders of the requested data.
system.tol2bus.snoop_filter.tot_snoops           5626                       # Total number of snoops made to the snoop filter.
system.tol2bus.snoop_filter.hit_single_snoops         5626                       # Number of snoops hitting in the snoop filter with a single holder of the requested data.
system.tol2bus.snoop_filter.hit_multi_snoops            0                       # Number of snoops hitting in the snoop filter with multiple (>1) holders of the requested data.
system.tol2bus.pwrStateResidencyTicks::UNDEFINED 3040035563500                       # Cumulative time (in ticks) in various power states
system.tol2bus.trans_dist::ReadResp          22353811                       # Transaction distribution
system.tol2bus.trans_dist::WritebackDirty     28618238                       # Transaction distribution
system.tol2bus.trans_dist::WritebackClean        13472                       # Transaction distribution
system.tol2bus.trans_dist::CleanEvict        19183102                       # Transaction distribution
system.tol2bus.trans_dist::ReadExReq          4581009                       # Transaction distribution
system.tol2bus.trans_dist::ReadExResp         4581009                       # Transaction distribution
system.tol2bus.trans_dist::ReadCleanReq         13986                       # Transaction distribution
system.tol2bus.trans_dist::ReadSharedReq     22339827                       # Transaction distribution
system.tol2bus.trans_dist::InvalidateReq      1445683                       # Transaction distribution
system.tol2bus.trans_dist::InvalidateResp      1445683                       # Transaction distribution
system.tol2bus.pkt_count_system.cpu.icache.mem_side::system.l2.cpu_side        41442                       # Packet count per connected master and slave (bytes)
system.tol2bus.pkt_count_system.cpu.dcache.mem_side::system.l2.cpu_side     85099045                       # Packet count per connected master and slave (bytes)
system.tol2bus.pkt_count::total              85140487                       # Packet count per connected master and slave (bytes)
system.tol2bus.pkt_size_system.cpu.icache.mem_side::system.l2.cpu_side      1757184                       # Cumulative packet size per connected master and slave (bytes)
system.tol2bus.pkt_size_system.cpu.dcache.mem_side::system.l2.cpu_side   2889409920                       # Cumulative packet size per connected master and slave (bytes)
system.tol2bus.pkt_size::total             2891167104                       # Cumulative packet size per connected master and slave (bytes)
system.tol2bus.snoops                        19435333                       # Total snoops (count)
system.tol2bus.snoopTraffic                 665090816                       # Total snoop traffic (bytes)
system.tol2bus.snoop_fanout::samples         47815883                       # Request fanout histogram
system.tol2bus.snoop_fanout::mean            0.000118                       # Request fanout histogram
system.tol2bus.snoop_fanout::stdev           0.010851                       # Request fanout histogram
system.tol2bus.snoop_fanout::underflows             0      0.00%      0.00% # Request fanout histogram
system.tol2bus.snoop_fanout::0               47810252     99.99%     99.99% # Request fanout histogram
system.tol2bus.snoop_fanout::1                   5631      0.01%    100.00% # Request fanout histogram
system.tol2bus.snoop_fanout::2                      0      0.00%    100.00% # Request fanout histogram
system.tol2bus.snoop_fanout::overflows              0      0.00%    100.00% # Request fanout histogram
system.tol2bus.snoop_fanout::min_value              0                       # Request fanout histogram
system.tol2bus.snoop_fanout::max_value              1                       # Request fanout histogram
system.tol2bus.snoop_fanout::total           47815883                       # Request fanout histogram
system.tol2bus.reqLayer0.occupancy        46619826748                       # Layer occupancy (ticks)
system.tol2bus.reqLayer0.utilization              1.5                       # Layer utilization (%)
system.tol2bus.respLayer0.occupancy          20978994                       # Layer occupancy (ticks)
system.tol2bus.respLayer0.utilization             0.0                       # Layer utilization (%)
system.tol2bus.respLayer1.occupancy       41104152044                       # Layer occupancy (ticks)
system.tol2bus.respLayer1.utilization             1.4                       # Layer utilization (%)

---------- End Simulation Statistics   ----------
