
---------- Begin Simulation Statistics ----------
sim_seconds                                199.669162                       # Number of seconds simulated
sim_ticks                                199669162375000                       # Number of ticks simulated
final_tick                               199669162375000                       # Number of ticks from beginning of simulation (restored from checkpoints and never reset)
sim_freq                                 1000000000000                       # Frequency of simulated ticks
host_inst_rate                                 344992                       # Simulator instruction rate (inst/s)
host_op_rate                                   368904                       # Simulator op (including micro ops) rate (op/s)
host_tick_rate                            21649719943                       # Simulator tick rate (ticks/s)
host_mem_usage                                4397020                       # Number of bytes of host memory used
host_seconds                                  9222.71                       # Real time elapsed on the host
sim_insts                                  3181766239                       # Number of instructions simulated
sim_ops                                    3402298039                       # Number of ops (including micro ops) simulated
system.voltage_domain.voltage                       1                       # Voltage in Volts
system.clk_domain.clock                           625                       # Clock period in ticks
system.mem_ctrls.pwrStateResidencyTicks::UNDEFINED 199669162375000                       # Cumulative time (in ticks) in various power states
system.mem_ctrls.bytes_read::.cpu.inst    12727066200                       # Number of bytes read from this memory
system.mem_ctrls.bytes_read::.cpu.data     3287038587                       # Number of bytes read from this memory
system.mem_ctrls.bytes_read::total        16014104787                       # Number of bytes read from this memory
system.mem_ctrls.bytes_inst_read::.cpu.inst  12727066200                       # Number of instructions bytes read from this memory
system.mem_ctrls.bytes_inst_read::total   12727066200                       # Number of instructions bytes read from this memory
system.mem_ctrls.bytes_written::.cpu.data   1905084079                       # Number of bytes written to this memory
system.mem_ctrls.bytes_written::total      1905084079                       # Number of bytes written to this memory
system.mem_ctrls.num_reads::.cpu.inst      3181766550                       # Number of read requests responded to by this memory
system.mem_ctrls.num_reads::.cpu.data       417597578                       # Number of read requests responded to by this memory
system.mem_ctrls.num_reads::total          3599364128                       # Number of read requests responded to by this memory
system.mem_ctrls.num_writes::.cpu.data      297352253                       # Number of write requests responded to by this memory
system.mem_ctrls.num_writes::total          297352253                       # Number of write requests responded to by this memory
system.mem_ctrls.bw_read::.cpu.inst          63740770                       # Total read bandwidth from this memory (bytes/s)
system.mem_ctrls.bw_read::.cpu.data          16462425                       # Total read bandwidth from this memory (bytes/s)
system.mem_ctrls.bw_read::total              80203195                       # Total read bandwidth from this memory (bytes/s)
system.mem_ctrls.bw_inst_read::.cpu.inst     63740770                       # Instruction read bandwidth from this memory (bytes/s)
system.mem_ctrls.bw_inst_read::total         63740770                       # Instruction read bandwidth from this memory (bytes/s)
system.mem_ctrls.bw_write::.cpu.data          9541203                       # Write bandwidth from this memory (bytes/s)
system.mem_ctrls.bw_write::total              9541203                       # Write bandwidth from this memory (bytes/s)
system.mem_ctrls.bw_total::.cpu.inst         63740770                       # Total bandwidth to/from this memory (bytes/s)
system.mem_ctrls.bw_total::.cpu.data         26003628                       # Total bandwidth to/from this memory (bytes/s)
system.mem_ctrls.bw_total::total             89744398                       # Total bandwidth to/from this memory (bytes/s)
system.mem_ctrls.avgPriority_.cpu.inst::samples 3181766551.00                       # Average QoS priority value for accepted requests
system.mem_ctrls.avgPriority_.cpu.data::samples 368919017.00                       # Average QoS priority value for accepted requests
system.mem_ctrls.priorityMinLatency      0.000000017492                       # per QoS priority minimum request to response latency (s)
system.mem_ctrls.priorityMaxLatency      8.698943898485                       # per QoS priority maximum request to response latency (s)
system.mem_ctrls.numReadWriteTurnArounds       831109                       # Number of turnarounds from READ to WRITE
system.mem_ctrls.numWriteReadTurnArounds       831109                       # Number of turnarounds from WRITE to READ
system.mem_ctrls.numStayReadState          7437098542                       # Number of times bus staying in READ state
system.mem_ctrls.numStayWriteState           13040341                       # Number of times bus staying in WRITE state
system.mem_ctrls.readReqs                  3599364129                       # Number of read requests accepted
system.mem_ctrls.writeReqs                  297352253                       # Number of write requests accepted
system.mem_ctrls.readBursts                3599364129                       # Number of DRAM read bursts, including those serviced by the write queue
system.mem_ctrls.writeBursts                297352253                       # Number of DRAM write bursts, including those merged in the write queue
system.mem_ctrls.bytesReadDRAM           226389920896                       # Total number of bytes read from DRAM
system.mem_ctrls.bytesReadWrQ              3969383360                       # Total number of bytes read from write queue
system.mem_ctrls.bytesWritten               853951488                       # Total number of bytes written to DRAM
system.mem_ctrls.bytesReadSys             16014104791                       # Total read bytes from the system interface side
system.mem_ctrls.bytesWrittenSys           1905084079                       # Total written bytes from the system interface side
system.mem_ctrls.servicedByWrQ               62021615                       # Number of DRAM read bursts serviced by the write queue
system.mem_ctrls.mergedWrBursts             284009199                       # Number of DRAM write bursts merged with an existing one
system.mem_ctrls.neitherReadNorWriteReqs            0                       # Number of requests that are neither read nor write
system.mem_ctrls.perBankRdBursts::0          14165343                       # Per bank write bursts
system.mem_ctrls.perBankRdBursts::1        1535685946                       # Per bank write bursts
system.mem_ctrls.perBankRdBursts::2         266902665                       # Per bank write bursts
system.mem_ctrls.perBankRdBursts::3          10038929                       # Per bank write bursts
system.mem_ctrls.perBankRdBursts::4         218239403                       # Per bank write bursts
system.mem_ctrls.perBankRdBursts::5          89296828                       # Per bank write bursts
system.mem_ctrls.perBankRdBursts::6           5897068                       # Per bank write bursts
system.mem_ctrls.perBankRdBursts::7           5862426                       # Per bank write bursts
system.mem_ctrls.perBankRdBursts::8          12237585                       # Per bank write bursts
system.mem_ctrls.perBankRdBursts::9           7983158                       # Per bank write bursts
system.mem_ctrls.perBankRdBursts::10          7923580                       # Per bank write bursts
system.mem_ctrls.perBankRdBursts::11        349305738                       # Per bank write bursts
system.mem_ctrls.perBankRdBursts::12          7760035                       # Per bank write bursts
system.mem_ctrls.perBankRdBursts::13          7565682                       # Per bank write bursts
system.mem_ctrls.perBankRdBursts::14          8000357                       # Per bank write bursts
system.mem_ctrls.perBankRdBursts::15          7414037                       # Per bank write bursts
system.mem_ctrls.perBankRdBursts::16          9954700                       # Per bank write bursts
system.mem_ctrls.perBankRdBursts::17          7306327                       # Per bank write bursts
system.mem_ctrls.perBankRdBursts::18          7140582                       # Per bank write bursts
system.mem_ctrls.perBankRdBursts::19          8070028                       # Per bank write bursts
system.mem_ctrls.perBankRdBursts::20          7642873                       # Per bank write bursts
system.mem_ctrls.perBankRdBursts::21          6644653                       # Per bank write bursts
system.mem_ctrls.perBankRdBursts::22          9292424                       # Per bank write bursts
system.mem_ctrls.perBankRdBursts::23        490888691                       # Per bank write bursts
system.mem_ctrls.perBankRdBursts::24          9986101                       # Per bank write bursts
system.mem_ctrls.perBankRdBursts::25          5911163                       # Per bank write bursts
system.mem_ctrls.perBankRdBursts::26         78712122                       # Per bank write bursts
system.mem_ctrls.perBankRdBursts::27         96518514                       # Per bank write bursts
system.mem_ctrls.perBankRdBursts::28          7513280                       # Per bank write bursts
system.mem_ctrls.perBankRdBursts::29          5582272                       # Per bank write bursts
system.mem_ctrls.perBankRdBursts::30        213387002                       # Per bank write bursts
system.mem_ctrls.perBankRdBursts::31         18513002                       # Per bank write bursts
system.mem_ctrls.perBankWrBursts::0            462249                       # Per bank write bursts
system.mem_ctrls.perBankWrBursts::1            517236                       # Per bank write bursts
system.mem_ctrls.perBankWrBursts::2            560582                       # Per bank write bursts
system.mem_ctrls.perBankWrBursts::3            400021                       # Per bank write bursts
system.mem_ctrls.perBankWrBursts::4            398897                       # Per bank write bursts
system.mem_ctrls.perBankWrBursts::5            397682                       # Per bank write bursts
system.mem_ctrls.perBankWrBursts::6            395354                       # Per bank write bursts
system.mem_ctrls.perBankWrBursts::7            393491                       # Per bank write bursts
system.mem_ctrls.perBankWrBursts::8            393794                       # Per bank write bursts
system.mem_ctrls.perBankWrBursts::9            404783                       # Per bank write bursts
system.mem_ctrls.perBankWrBursts::10           403857                       # Per bank write bursts
system.mem_ctrls.perBankWrBursts::11           403408                       # Per bank write bursts
system.mem_ctrls.perBankWrBursts::12           402077                       # Per bank write bursts
system.mem_ctrls.perBankWrBursts::13           400138                       # Per bank write bursts
system.mem_ctrls.perBankWrBursts::14           398422                       # Per bank write bursts
system.mem_ctrls.perBankWrBursts::15           395476                       # Per bank write bursts
system.mem_ctrls.perBankWrBursts::16           399851                       # Per bank write bursts
system.mem_ctrls.perBankWrBursts::17           399763                       # Per bank write bursts
system.mem_ctrls.perBankWrBursts::18           400785                       # Per bank write bursts
system.mem_ctrls.perBankWrBursts::19           406458                       # Per bank write bursts
system.mem_ctrls.perBankWrBursts::20           400257                       # Per bank write bursts
system.mem_ctrls.perBankWrBursts::21           401458                       # Per bank write bursts
system.mem_ctrls.perBankWrBursts::22           397689                       # Per bank write bursts
system.mem_ctrls.perBankWrBursts::23           397240                       # Per bank write bursts
system.mem_ctrls.perBankWrBursts::24           405417                       # Per bank write bursts
system.mem_ctrls.perBankWrBursts::25           405681                       # Per bank write bursts
system.mem_ctrls.perBankWrBursts::26           404653                       # Per bank write bursts
system.mem_ctrls.perBankWrBursts::27           406682                       # Per bank write bursts
system.mem_ctrls.perBankWrBursts::28           405771                       # Per bank write bursts
system.mem_ctrls.perBankWrBursts::29           402428                       # Per bank write bursts
system.mem_ctrls.perBankWrBursts::30           574861                       # Per bank write bursts
system.mem_ctrls.perBankWrBursts::31           406531                       # Per bank write bursts
system.mem_ctrls.numRdRetry                         0                       # Number of times read queue was full causing retry
system.mem_ctrls.numWrRetry                         0                       # Number of times write queue was full causing retry
system.mem_ctrls.totGap                  199669162302500                       # Total gap between requests
system.mem_ctrls.readPktSize::0              11765591                       # Read request sizes (log2)
system.mem_ctrls.readPktSize::1                   236                       # Read request sizes (log2)
system.mem_ctrls.readPktSize::2            3369424636                       # Read request sizes (log2)
system.mem_ctrls.readPktSize::3             120391816                       # Read request sizes (log2)
system.mem_ctrls.readPktSize::4              97781850                       # Read request sizes (log2)
system.mem_ctrls.readPktSize::5                     0                       # Read request sizes (log2)
system.mem_ctrls.readPktSize::6                     0                       # Read request sizes (log2)
system.mem_ctrls.writePktSize::0              7076438                       # Write request sizes (log2)
system.mem_ctrls.writePktSize::1                   27                       # Write request sizes (log2)
system.mem_ctrls.writePktSize::2            126380448                       # Write request sizes (log2)
system.mem_ctrls.writePktSize::3            162408376                       # Write request sizes (log2)
system.mem_ctrls.writePktSize::4                40560                       # Write request sizes (log2)
system.mem_ctrls.writePktSize::5                    0                       # Write request sizes (log2)
system.mem_ctrls.writePktSize::6              1446404                       # Write request sizes (log2)
system.mem_ctrls.rdQLenPdf::0              3536493219                       # What read queue length does an incoming req see
system.mem_ctrls.rdQLenPdf::1                  849295                       # What read queue length does an incoming req see
system.mem_ctrls.rdQLenPdf::2                       0                       # What read queue length does an incoming req see
system.mem_ctrls.rdQLenPdf::3                       0                       # What read queue length does an incoming req see
system.mem_ctrls.rdQLenPdf::4                       0                       # What read queue length does an incoming req see
system.mem_ctrls.rdQLenPdf::5                       0                       # What read queue length does an incoming req see
system.mem_ctrls.rdQLenPdf::6                       0                       # What read queue length does an incoming req see
system.mem_ctrls.rdQLenPdf::7                       0                       # What read queue length does an incoming req see
system.mem_ctrls.rdQLenPdf::8                       0                       # What read queue length does an incoming req see
system.mem_ctrls.rdQLenPdf::9                       0                       # What read queue length does an incoming req see
system.mem_ctrls.rdQLenPdf::10                      0                       # What read queue length does an incoming req see
system.mem_ctrls.rdQLenPdf::11                      0                       # What read queue length does an incoming req see
system.mem_ctrls.rdQLenPdf::12                      0                       # What read queue length does an incoming req see
system.mem_ctrls.rdQLenPdf::13                      0                       # What read queue length does an incoming req see
system.mem_ctrls.rdQLenPdf::14                      0                       # What read queue length does an incoming req see
system.mem_ctrls.rdQLenPdf::15                      0                       # What read queue length does an incoming req see
system.mem_ctrls.rdQLenPdf::16                      0                       # What read queue length does an incoming req see
system.mem_ctrls.rdQLenPdf::17                      0                       # What read queue length does an incoming req see
system.mem_ctrls.rdQLenPdf::18                      0                       # What read queue length does an incoming req see
system.mem_ctrls.rdQLenPdf::19                      0                       # What read queue length does an incoming req see
system.mem_ctrls.rdQLenPdf::20                      0                       # What read queue length does an incoming req see
system.mem_ctrls.rdQLenPdf::21                      0                       # What read queue length does an incoming req see
system.mem_ctrls.rdQLenPdf::22                      0                       # What read queue length does an incoming req see
system.mem_ctrls.rdQLenPdf::23                      0                       # What read queue length does an incoming req see
system.mem_ctrls.rdQLenPdf::24                      0                       # What read queue length does an incoming req see
system.mem_ctrls.rdQLenPdf::25                      0                       # What read queue length does an incoming req see
system.mem_ctrls.rdQLenPdf::26                      0                       # What read queue length does an incoming req see
system.mem_ctrls.rdQLenPdf::27                      0                       # What read queue length does an incoming req see
system.mem_ctrls.rdQLenPdf::28                      0                       # What read queue length does an incoming req see
system.mem_ctrls.rdQLenPdf::29                      0                       # What read queue length does an incoming req see
system.mem_ctrls.rdQLenPdf::30                      0                       # What read queue length does an incoming req see
system.mem_ctrls.rdQLenPdf::31                      0                       # What read queue length does an incoming req see
system.mem_ctrls.rdQLenPdf::32                      0                       # What read queue length does an incoming req see
system.mem_ctrls.rdQLenPdf::33                      0                       # What read queue length does an incoming req see
system.mem_ctrls.rdQLenPdf::34                      0                       # What read queue length does an incoming req see
system.mem_ctrls.rdQLenPdf::35                      0                       # What read queue length does an incoming req see
system.mem_ctrls.rdQLenPdf::36                      0                       # What read queue length does an incoming req see
system.mem_ctrls.rdQLenPdf::37                      0                       # What read queue length does an incoming req see
system.mem_ctrls.rdQLenPdf::38                      0                       # What read queue length does an incoming req see
system.mem_ctrls.rdQLenPdf::39                      0                       # What read queue length does an incoming req see
system.mem_ctrls.rdQLenPdf::40                      0                       # What read queue length does an incoming req see
system.mem_ctrls.rdQLenPdf::41                      0                       # What read queue length does an incoming req see
system.mem_ctrls.rdQLenPdf::42                      0                       # What read queue length does an incoming req see
system.mem_ctrls.rdQLenPdf::43                      0                       # What read queue length does an incoming req see
system.mem_ctrls.rdQLenPdf::44                      0                       # What read queue length does an incoming req see
system.mem_ctrls.rdQLenPdf::45                      0                       # What read queue length does an incoming req see
system.mem_ctrls.rdQLenPdf::46                      0                       # What read queue length does an incoming req see
system.mem_ctrls.rdQLenPdf::47                      0                       # What read queue length does an incoming req see
system.mem_ctrls.rdQLenPdf::48                      0                       # What read queue length does an incoming req see
system.mem_ctrls.rdQLenPdf::49                      0                       # What read queue length does an incoming req see
system.mem_ctrls.rdQLenPdf::50                      0                       # What read queue length does an incoming req see
system.mem_ctrls.rdQLenPdf::51                      0                       # What read queue length does an incoming req see
system.mem_ctrls.rdQLenPdf::52                      0                       # What read queue length does an incoming req see
system.mem_ctrls.rdQLenPdf::53                      0                       # What read queue length does an incoming req see
system.mem_ctrls.rdQLenPdf::54                      0                       # What read queue length does an incoming req see
system.mem_ctrls.rdQLenPdf::55                      0                       # What read queue length does an incoming req see
system.mem_ctrls.rdQLenPdf::56                      0                       # What read queue length does an incoming req see
system.mem_ctrls.rdQLenPdf::57                      0                       # What read queue length does an incoming req see
system.mem_ctrls.rdQLenPdf::58                      0                       # What read queue length does an incoming req see
system.mem_ctrls.rdQLenPdf::59                      0                       # What read queue length does an incoming req see
system.mem_ctrls.rdQLenPdf::60                      0                       # What read queue length does an incoming req see
system.mem_ctrls.rdQLenPdf::61                      0                       # What read queue length does an incoming req see
system.mem_ctrls.rdQLenPdf::62                      0                       # What read queue length does an incoming req see
system.mem_ctrls.rdQLenPdf::63                      0                       # What read queue length does an incoming req see
system.mem_ctrls.wrQLenPdf::0                       1                       # What write queue length does an incoming req see
system.mem_ctrls.wrQLenPdf::1                       1                       # What write queue length does an incoming req see
system.mem_ctrls.wrQLenPdf::2                       1                       # What write queue length does an incoming req see
system.mem_ctrls.wrQLenPdf::3                       1                       # What write queue length does an incoming req see
system.mem_ctrls.wrQLenPdf::4                       1                       # What write queue length does an incoming req see
system.mem_ctrls.wrQLenPdf::5                       1                       # What write queue length does an incoming req see
system.mem_ctrls.wrQLenPdf::6                       1                       # What write queue length does an incoming req see
system.mem_ctrls.wrQLenPdf::7                       1                       # What write queue length does an incoming req see
system.mem_ctrls.wrQLenPdf::8                       1                       # What write queue length does an incoming req see
system.mem_ctrls.wrQLenPdf::9                       1                       # What write queue length does an incoming req see
system.mem_ctrls.wrQLenPdf::10                      1                       # What write queue length does an incoming req see
system.mem_ctrls.wrQLenPdf::11                      1                       # What write queue length does an incoming req see
system.mem_ctrls.wrQLenPdf::12                      1                       # What write queue length does an incoming req see
system.mem_ctrls.wrQLenPdf::13                      1                       # What write queue length does an incoming req see
system.mem_ctrls.wrQLenPdf::14                      1                       # What write queue length does an incoming req see
system.mem_ctrls.wrQLenPdf::15                      1                       # What write queue length does an incoming req see
system.mem_ctrls.wrQLenPdf::16                      1                       # What write queue length does an incoming req see
system.mem_ctrls.wrQLenPdf::17                      1                       # What write queue length does an incoming req see
system.mem_ctrls.wrQLenPdf::18                      1                       # What write queue length does an incoming req see
system.mem_ctrls.wrQLenPdf::19                      1                       # What write queue length does an incoming req see
system.mem_ctrls.wrQLenPdf::20                      1                       # What write queue length does an incoming req see
system.mem_ctrls.wrQLenPdf::21                      1                       # What write queue length does an incoming req see
system.mem_ctrls.wrQLenPdf::22                      1                       # What write queue length does an incoming req see
system.mem_ctrls.wrQLenPdf::23                      1                       # What write queue length does an incoming req see
system.mem_ctrls.wrQLenPdf::24                      1                       # What write queue length does an incoming req see
system.mem_ctrls.wrQLenPdf::25                      1                       # What write queue length does an incoming req see
system.mem_ctrls.wrQLenPdf::26                      1                       # What write queue length does an incoming req see
system.mem_ctrls.wrQLenPdf::27                      1                       # What write queue length does an incoming req see
system.mem_ctrls.wrQLenPdf::28                      1                       # What write queue length does an incoming req see
system.mem_ctrls.wrQLenPdf::29                      1                       # What write queue length does an incoming req see
system.mem_ctrls.wrQLenPdf::30                      1                       # What write queue length does an incoming req see
system.mem_ctrls.wrQLenPdf::31                      1                       # What write queue length does an incoming req see
system.mem_ctrls.wrQLenPdf::32                      1                       # What write queue length does an incoming req see
system.mem_ctrls.wrQLenPdf::33                      1                       # What write queue length does an incoming req see
system.mem_ctrls.wrQLenPdf::34                      1                       # What write queue length does an incoming req see
system.mem_ctrls.wrQLenPdf::35                      1                       # What write queue length does an incoming req see
system.mem_ctrls.wrQLenPdf::36                      1                       # What write queue length does an incoming req see
system.mem_ctrls.wrQLenPdf::37                      1                       # What write queue length does an incoming req see
system.mem_ctrls.wrQLenPdf::38                      1                       # What write queue length does an incoming req see
system.mem_ctrls.wrQLenPdf::39                      1                       # What write queue length does an incoming req see
system.mem_ctrls.wrQLenPdf::40                      1                       # What write queue length does an incoming req see
system.mem_ctrls.wrQLenPdf::41                      1                       # What write queue length does an incoming req see
system.mem_ctrls.wrQLenPdf::42                      1                       # What write queue length does an incoming req see
system.mem_ctrls.wrQLenPdf::43                      1                       # What write queue length does an incoming req see
system.mem_ctrls.wrQLenPdf::44                      1                       # What write queue length does an incoming req see
system.mem_ctrls.wrQLenPdf::45                      1                       # What write queue length does an incoming req see
system.mem_ctrls.wrQLenPdf::46                      1                       # What write queue length does an incoming req see
system.mem_ctrls.wrQLenPdf::47                     64                       # What write queue length does an incoming req see
system.mem_ctrls.wrQLenPdf::48                  45147                       # What write queue length does an incoming req see
system.mem_ctrls.wrQLenPdf::49                 814385                       # What write queue length does an incoming req see
system.mem_ctrls.wrQLenPdf::50                 831110                       # What write queue length does an incoming req see
system.mem_ctrls.wrQLenPdf::51                 831110                       # What write queue length does an incoming req see
system.mem_ctrls.wrQLenPdf::52                 831110                       # What write queue length does an incoming req see
system.mem_ctrls.wrQLenPdf::53                 831125                       # What write queue length does an incoming req see
system.mem_ctrls.wrQLenPdf::54                 833298                       # What write queue length does an incoming req see
system.mem_ctrls.wrQLenPdf::55                 835620                       # What write queue length does an incoming req see
system.mem_ctrls.wrQLenPdf::56                 836615                       # What write queue length does an incoming req see
system.mem_ctrls.wrQLenPdf::57                 832956                       # What write queue length does an incoming req see
system.mem_ctrls.wrQLenPdf::58                 832352                       # What write queue length does an incoming req see
system.mem_ctrls.wrQLenPdf::59                 831693                       # What write queue length does an incoming req see
system.mem_ctrls.wrQLenPdf::60                 831581                       # What write queue length does an incoming req see
system.mem_ctrls.wrQLenPdf::61                 831401                       # What write queue length does an incoming req see
system.mem_ctrls.wrQLenPdf::62                 831177                       # What write queue length does an incoming req see
system.mem_ctrls.wrQLenPdf::63                 831131                       # What write queue length does an incoming req see
system.mem_ctrls.wrQLenPdf::64                 831132                       # What write queue length does an incoming req see
system.mem_ctrls.wrQLenPdf::65                      0                       # What write queue length does an incoming req see
system.mem_ctrls.wrQLenPdf::66                      0                       # What write queue length does an incoming req see
system.mem_ctrls.wrQLenPdf::67                      0                       # What write queue length does an incoming req see
system.mem_ctrls.wrQLenPdf::68                      0                       # What write queue length does an incoming req see
system.mem_ctrls.wrQLenPdf::69                      0                       # What write queue length does an incoming req see
system.mem_ctrls.wrQLenPdf::70                      0                       # What write queue length does an incoming req see
system.mem_ctrls.wrQLenPdf::71                      0                       # What write queue length does an incoming req see
system.mem_ctrls.wrQLenPdf::72                      0                       # What write queue length does an incoming req see
system.mem_ctrls.wrQLenPdf::73                      0                       # What write queue length does an incoming req see
system.mem_ctrls.wrQLenPdf::74                      0                       # What write queue length does an incoming req see
system.mem_ctrls.wrQLenPdf::75                      0                       # What write queue length does an incoming req see
system.mem_ctrls.wrQLenPdf::76                      0                       # What write queue length does an incoming req see
system.mem_ctrls.wrQLenPdf::77                      0                       # What write queue length does an incoming req see
system.mem_ctrls.wrQLenPdf::78                      0                       # What write queue length does an incoming req see
system.mem_ctrls.wrQLenPdf::79                      0                       # What write queue length does an incoming req see
system.mem_ctrls.wrQLenPdf::80                      0                       # What write queue length does an incoming req see
system.mem_ctrls.wrQLenPdf::81                      0                       # What write queue length does an incoming req see
system.mem_ctrls.wrQLenPdf::82                      0                       # What write queue length does an incoming req see
system.mem_ctrls.wrQLenPdf::83                      0                       # What write queue length does an incoming req see
system.mem_ctrls.wrQLenPdf::84                      0                       # What write queue length does an incoming req see
system.mem_ctrls.wrQLenPdf::85                      0                       # What write queue length does an incoming req see
system.mem_ctrls.wrQLenPdf::86                      0                       # What write queue length does an incoming req see
system.mem_ctrls.wrQLenPdf::87                      0                       # What write queue length does an incoming req see
system.mem_ctrls.wrQLenPdf::88                      0                       # What write queue length does an incoming req see
system.mem_ctrls.wrQLenPdf::89                      0                       # What write queue length does an incoming req see
system.mem_ctrls.wrQLenPdf::90                      0                       # What write queue length does an incoming req see
system.mem_ctrls.wrQLenPdf::91                      0                       # What write queue length does an incoming req see
system.mem_ctrls.wrQLenPdf::92                      0                       # What write queue length does an incoming req see
system.mem_ctrls.wrQLenPdf::93                      0                       # What write queue length does an incoming req see
system.mem_ctrls.wrQLenPdf::94                      0                       # What write queue length does an incoming req see
system.mem_ctrls.wrQLenPdf::95                      0                       # What write queue length does an incoming req see
system.mem_ctrls.wrQLenPdf::96                      0                       # What write queue length does an incoming req see
system.mem_ctrls.wrQLenPdf::97                      0                       # What write queue length does an incoming req see
system.mem_ctrls.wrQLenPdf::98                      0                       # What write queue length does an incoming req see
system.mem_ctrls.wrQLenPdf::99                      0                       # What write queue length does an incoming req see
system.mem_ctrls.wrQLenPdf::100                     0                       # What write queue length does an incoming req see
system.mem_ctrls.wrQLenPdf::101                     0                       # What write queue length does an incoming req see
system.mem_ctrls.wrQLenPdf::102                     0                       # What write queue length does an incoming req see
system.mem_ctrls.wrQLenPdf::103                     0                       # What write queue length does an incoming req see
system.mem_ctrls.wrQLenPdf::104                     0                       # What write queue length does an incoming req see
system.mem_ctrls.wrQLenPdf::105                     0                       # What write queue length does an incoming req see
system.mem_ctrls.wrQLenPdf::106                     0                       # What write queue length does an incoming req see
system.mem_ctrls.wrQLenPdf::107                     0                       # What write queue length does an incoming req see
system.mem_ctrls.wrQLenPdf::108                     0                       # What write queue length does an incoming req see
system.mem_ctrls.wrQLenPdf::109                     0                       # What write queue length does an incoming req see
system.mem_ctrls.wrQLenPdf::110                     0                       # What write queue length does an incoming req see
system.mem_ctrls.wrQLenPdf::111                     0                       # What write queue length does an incoming req see
system.mem_ctrls.wrQLenPdf::112                     0                       # What write queue length does an incoming req see
system.mem_ctrls.wrQLenPdf::113                     0                       # What write queue length does an incoming req see
system.mem_ctrls.wrQLenPdf::114                     0                       # What write queue length does an incoming req see
system.mem_ctrls.wrQLenPdf::115                     0                       # What write queue length does an incoming req see
system.mem_ctrls.wrQLenPdf::116                     0                       # What write queue length does an incoming req see
system.mem_ctrls.wrQLenPdf::117                     0                       # What write queue length does an incoming req see
system.mem_ctrls.wrQLenPdf::118                     0                       # What write queue length does an incoming req see
system.mem_ctrls.wrQLenPdf::119                     0                       # What write queue length does an incoming req see
system.mem_ctrls.wrQLenPdf::120                     0                       # What write queue length does an incoming req see
system.mem_ctrls.wrQLenPdf::121                     0                       # What write queue length does an incoming req see
system.mem_ctrls.wrQLenPdf::122                     0                       # What write queue length does an incoming req see
system.mem_ctrls.wrQLenPdf::123                     0                       # What write queue length does an incoming req see
system.mem_ctrls.wrQLenPdf::124                     0                       # What write queue length does an incoming req see
system.mem_ctrls.wrQLenPdf::125                     0                       # What write queue length does an incoming req see
system.mem_ctrls.wrQLenPdf::126                     0                       # What write queue length does an incoming req see
system.mem_ctrls.wrQLenPdf::127                     0                       # What write queue length does an incoming req see
system.mem_ctrls.bytesPerActivate::samples    292859624                       # Bytes accessed per row activation
system.mem_ctrls.bytesPerActivate::mean    775.948106                       # Bytes accessed per row activation
system.mem_ctrls.bytesPerActivate::gmean   625.389362                       # Bytes accessed per row activation
system.mem_ctrls.bytesPerActivate::stdev   349.761004                       # Bytes accessed per row activation
system.mem_ctrls.bytesPerActivate::0-127     19684046      6.72%      6.72% # Bytes accessed per row activation
system.mem_ctrls.bytesPerActivate::128-255     15446152      5.27%     12.00% # Bytes accessed per row activation
system.mem_ctrls.bytesPerActivate::256-383     22236977      7.59%     19.59% # Bytes accessed per row activation
system.mem_ctrls.bytesPerActivate::384-511     18069423      6.17%     25.76% # Bytes accessed per row activation
system.mem_ctrls.bytesPerActivate::512-639     14768055      5.04%     30.80% # Bytes accessed per row activation
system.mem_ctrls.bytesPerActivate::640-767      8884887      3.03%     33.84% # Bytes accessed per row activation
system.mem_ctrls.bytesPerActivate::768-895      7132202      2.44%     36.27% # Bytes accessed per row activation
system.mem_ctrls.bytesPerActivate::896-1023      7181233      2.45%     38.72% # Bytes accessed per row activation
system.mem_ctrls.bytesPerActivate::1024-1151    179456649     61.28%    100.00% # Bytes accessed per row activation
system.mem_ctrls.bytesPerActivate::total    292859624                       # Bytes accessed per row activation
system.mem_ctrls.rdPerTurnAround::samples       831109                       # Reads before turning the bus around for writes
system.mem_ctrls.rdPerTurnAround::mean    4256.169957                       # Reads before turning the bus around for writes
system.mem_ctrls.rdPerTurnAround::gmean    832.299212                       # Reads before turning the bus around for writes
system.mem_ctrls.rdPerTurnAround::stdev  25762.831575                       # Reads before turning the bus around for writes
system.mem_ctrls.rdPerTurnAround::0-16383       814828     98.04%     98.04% # Reads before turning the bus around for writes
system.mem_ctrls.rdPerTurnAround::16384-32767         4973      0.60%     98.64% # Reads before turning the bus around for writes
system.mem_ctrls.rdPerTurnAround::32768-49151         3190      0.38%     99.02% # Reads before turning the bus around for writes
system.mem_ctrls.rdPerTurnAround::49152-65535         2601      0.31%     99.34% # Reads before turning the bus around for writes
system.mem_ctrls.rdPerTurnAround::65536-81919          182      0.02%     99.36% # Reads before turning the bus around for writes
system.mem_ctrls.rdPerTurnAround::81920-98303         1243      0.15%     99.51% # Reads before turning the bus around for writes
system.mem_ctrls.rdPerTurnAround::98304-114687          445      0.05%     99.56% # Reads before turning the bus around for writes
system.mem_ctrls.rdPerTurnAround::114688-131071          427      0.05%     99.61% # Reads before turning the bus around for writes
system.mem_ctrls.rdPerTurnAround::131072-147455          164      0.02%     99.63% # Reads before turning the bus around for writes
system.mem_ctrls.rdPerTurnAround::147456-163839          455      0.05%     99.69% # Reads before turning the bus around for writes
system.mem_ctrls.rdPerTurnAround::163840-180223          159      0.02%     99.71% # Reads before turning the bus around for writes
system.mem_ctrls.rdPerTurnAround::180224-196607            1      0.00%     99.71% # Reads before turning the bus around for writes
system.mem_ctrls.rdPerTurnAround::196608-212991           19      0.00%     99.71% # Reads before turning the bus around for writes
system.mem_ctrls.rdPerTurnAround::212992-229375           10      0.00%     99.71% # Reads before turning the bus around for writes
system.mem_ctrls.rdPerTurnAround::229376-245759            5      0.00%     99.71% # Reads before turning the bus around for writes
system.mem_ctrls.rdPerTurnAround::245760-262143           36      0.00%     99.71% # Reads before turning the bus around for writes
system.mem_ctrls.rdPerTurnAround::262144-278527          369      0.04%     99.76% # Reads before turning the bus around for writes
system.mem_ctrls.rdPerTurnAround::278528-294911            7      0.00%     99.76% # Reads before turning the bus around for writes
system.mem_ctrls.rdPerTurnAround::294912-311295          285      0.03%     99.79% # Reads before turning the bus around for writes
system.mem_ctrls.rdPerTurnAround::311296-327679          113      0.01%     99.81% # Reads before turning the bus around for writes
system.mem_ctrls.rdPerTurnAround::327680-344063            2      0.00%     99.81% # Reads before turning the bus around for writes
system.mem_ctrls.rdPerTurnAround::344064-360447            1      0.00%     99.81% # Reads before turning the bus around for writes
system.mem_ctrls.rdPerTurnAround::360448-376831            3      0.00%     99.81% # Reads before turning the bus around for writes
system.mem_ctrls.rdPerTurnAround::376832-393215           58      0.01%     99.82% # Reads before turning the bus around for writes
system.mem_ctrls.rdPerTurnAround::393216-409599           18      0.00%     99.82% # Reads before turning the bus around for writes
system.mem_ctrls.rdPerTurnAround::409600-425983           97      0.01%     99.83% # Reads before turning the bus around for writes
system.mem_ctrls.rdPerTurnAround::425984-442367          144      0.02%     99.85% # Reads before turning the bus around for writes
system.mem_ctrls.rdPerTurnAround::442368-458751           29      0.00%     99.85% # Reads before turning the bus around for writes
system.mem_ctrls.rdPerTurnAround::458752-475135          271      0.03%     99.88% # Reads before turning the bus around for writes
system.mem_ctrls.rdPerTurnAround::475136-491519            6      0.00%     99.88% # Reads before turning the bus around for writes
system.mem_ctrls.rdPerTurnAround::491520-507903          186      0.02%     99.91% # Reads before turning the bus around for writes
system.mem_ctrls.rdPerTurnAround::540672-557055          453      0.05%     99.96% # Reads before turning the bus around for writes
system.mem_ctrls.rdPerTurnAround::573440-589823          189      0.02%     99.98% # Reads before turning the bus around for writes
system.mem_ctrls.rdPerTurnAround::622592-638975          139      0.02%    100.00% # Reads before turning the bus around for writes
system.mem_ctrls.rdPerTurnAround::655360-671743            1      0.00%    100.00% # Reads before turning the bus around for writes
system.mem_ctrls.rdPerTurnAround::total        831109                       # Reads before turning the bus around for writes
system.mem_ctrls.wrPerTurnAround::samples       831109                       # Writes before turning the bus around for reads
system.mem_ctrls.wrPerTurnAround::mean      16.054443                       # Writes before turning the bus around for reads
system.mem_ctrls.wrPerTurnAround::gmean     16.052892                       # Writes before turning the bus around for reads
system.mem_ctrls.wrPerTurnAround::stdev      0.227261                       # Writes before turning the bus around for reads
system.mem_ctrls.wrPerTurnAround::16           785930     94.56%     94.56% # Writes before turning the bus around for reads
system.mem_ctrls.wrPerTurnAround::17            45111      5.43%     99.99% # Writes before turning the bus around for reads
system.mem_ctrls.wrPerTurnAround::18               67      0.01%    100.00% # Writes before turning the bus around for reads
system.mem_ctrls.wrPerTurnAround::19                1      0.00%    100.00% # Writes before turning the bus around for reads
system.mem_ctrls.wrPerTurnAround::total        831109                       # Writes before turning the bus around for reads
system.mem_ctrls.masterReadBytes::.cpu.inst  12727066204                       # Per-master bytes read from memory
system.mem_ctrls.masterReadBytes::.cpu.data   3036155507                       # Per-master bytes read from memory
system.mem_ctrls.masterWriteBytes::.cpu.data    171087253                       # Per-master bytes write to memory
system.mem_ctrls.masterReadRate::.cpu.inst 63740770.245217986405                       # Per-master bytes read from memory rate (Bytes/sec)
system.mem_ctrls.masterReadRate::.cpu.data 15205931.005498863757                       # Per-master bytes read from memory rate (Bytes/sec)
system.mem_ctrls.masterWriteRate::.cpu.data 856853.662152795820                       # Per-master bytes write to memory rate (Bytes/sec)
system.mem_ctrls.masterReadAccesses::.cpu.inst   3181766551                       # Per-master read serviced memory accesses
system.mem_ctrls.masterReadAccesses::.cpu.data    417597578                       # Per-master read serviced memory accesses
system.mem_ctrls.masterWriteAccesses::.cpu.data    297352253                       # Per-master write serviced memory accesses
system.mem_ctrls.masterReadTotalLat::.cpu.inst 87333311425296                       # Per-master read total memory access latency
system.mem_ctrls.masterReadTotalLat::.cpu.data 12024607277265                       # Per-master read total memory access latency
system.mem_ctrls.masterWriteTotalLat::.cpu.data 11474218207689074                       # Per-master write total memory access latency
system.mem_ctrls.masterReadAvgLat::.cpu.inst     27448.06                       # Per-master read average memory access latency
system.mem_ctrls.masterReadAvgLat::.cpu.data     28794.72                       # Per-master read average memory access latency
system.mem_ctrls.masterWriteAvgLat::.cpu.data  38587964.58                       # Per-master write average memory access latency
system.mem_ctrls.totQLat                 37482723447673                       # Total ticks spent queuing
system.mem_ctrls.totMemAccLat            99357918702561                       # Total ticks spent from burst creation until serviced by the DRAM
system.mem_ctrls.totBusLat               11786425256648                       # Total ticks spent in databus transfers
system.mem_ctrls.avgQLat                     10596.29                       # Average queueing delay per DRAM burst
system.mem_ctrls.avgBusLat                    3332.00                       # Average bus latency per DRAM burst
system.mem_ctrls.avgMemAccLat                28088.29                       # Average memory access latency per DRAM burst
system.mem_ctrls.avgRdBW                      1133.83                       # Average DRAM read bandwidth in MiByte/s
system.mem_ctrls.avgWrBW                         4.28                       # Average achieved write bandwidth in MiByte/s
system.mem_ctrls.avgRdBWSys                     80.20                       # Average system read bandwidth in MiByte/s
system.mem_ctrls.avgWrBWSys                      9.54                       # Average system write bandwidth in MiByte/s
system.mem_ctrls.peakBW                      19207.00                       # Theoretical peak bandwidth in MiByte/s
system.mem_ctrls.busUtil                         5.93                       # Data bus utilization in percentage
system.mem_ctrls.busUtilRead                     5.90                       # Data bus utilization in percentage for reads
system.mem_ctrls.busUtilWrite                    0.02                       # Data bus utilization in percentage for writes
system.mem_ctrls.avgRdQLen                       1.00                       # Average read queue length when enqueuing
system.mem_ctrls.avgWrQLen                      57.86                       # Average write queue length when enqueuing
system.mem_ctrls.readRowHits               3245718289                       # Number of row buffer hits during reads
system.mem_ctrls.writeRowHits                12107588                       # Number of row buffer hits during writes
system.mem_ctrls.readRowHitRate                 91.76                       # Row buffer hit rate for reads
system.mem_ctrls.writeRowHitRate                90.74                       # Row buffer hit rate for writes
system.mem_ctrls.avgGap                      51240.36                       # Average gap between requests
system.mem_ctrls.pageHitRate                    91.75                       # Row buffer hit rate, read and write combined
system.mem_ctrls_0.actEnergy             909442022599.784668                       # Energy for activate commands per rank (pJ)
system.mem_ctrls_0.preEnergy             613938447829.177124                       # Energy for precharge commands per rank (pJ)
system.mem_ctrls_0.readEnergy            6512918803713.129883                       # Energy for read commands per rank (pJ)
system.mem_ctrls_0.writeEnergy           9853388619.413061                       # Energy for write commands per rank (pJ)
system.mem_ctrls_0.refreshEnergy         9081054200654.087891                       # Energy for refresh commands per rank (pJ)
system.mem_ctrls_0.actBackEnergy         15773664383104.328125                       # Energy for active background per rank (pJ)
system.mem_ctrls_0.preBackEnergy         336710620396.275513                       # Energy for precharge background per rank (pJ)
system.mem_ctrls_0.actPowerDownEnergy    22038666638916.023438                       # Energy for active power-down per rank (pJ)
system.mem_ctrls_0.prePowerDownEnergy    1140577354714.459717                       # Energy for precharge power-down per rank (pJ)
system.mem_ctrls_0.selfRefreshEnergy     2112521182356.494141                       # Energy for self refresh per rank (pJ)
system.mem_ctrls_0.totalEnergy           58532128060321.054688                       # Total energy per rank (pJ)
system.mem_ctrls_0.averagePower            293.145558                       # Core power per rank (mW)
system.mem_ctrls_0.totalIdleTime         135882667020712                       # Total Idle time Per DRAM Rank
system.mem_ctrls_0.memoryStateTime::IDLE 491381221596                       # Time in different power states
system.mem_ctrls_0.memoryStateTime::REF  8327002250000                       # Time in different power states
system.mem_ctrls_0.memoryStateTime::SREF 14392773860531                       # Time in different power states
system.mem_ctrls_0.memoryStateTime::PRE_PDN 9504807696994                       # Time in different power states
system.mem_ctrls_0.memoryStateTime::ACT  54968111402692                       # Time in different power states
system.mem_ctrls_0.memoryStateTime::ACT_PDN 111985085943187                       # Time in different power states
system.mem_ctrls_1.actEnergy             219674269447.693634                       # Energy for activate commands per rank (pJ)
system.mem_ctrls_1.preEnergy             148295848824.887878                       # Energy for precharge commands per rank (pJ)
system.mem_ctrls_1.readEnergy            1238769652903.213135                       # Energy for read commands per rank (pJ)
system.mem_ctrls_1.writeEnergy           8949085113.543783                       # Energy for write commands per rank (pJ)
system.mem_ctrls_1.refreshEnergy         5410508899433.763672                       # Energy for refresh commands per rank (pJ)
system.mem_ctrls_1.actBackEnergy         6417288230674.785156                       # Energy for active background per rank (pJ)
system.mem_ctrls_1.preBackEnergy         248167334041.595612                       # Energy for precharge background per rank (pJ)
system.mem_ctrls_1.actPowerDownEnergy    13847856527430.283203                       # Energy for active power-down per rank (pJ)
system.mem_ctrls_1.prePowerDownEnergy    1707322910440.892822                       # Energy for precharge power-down per rank (pJ)
system.mem_ctrls_1.selfRefreshEnergy     13675986252900.136719                       # Energy for self refresh per rank (pJ)
system.mem_ctrls_1.totalEnergy           42954129961271.234375                       # Total energy per rank (pJ)
system.mem_ctrls_1.averagePower            215.126510                       # Core power per rank (mW)
system.mem_ctrls_1.totalIdleTime         172916531096670                       # Total Idle time Per DRAM Rank
system.mem_ctrls_1.memoryStateTime::IDLE 1092698715540                       # Time in different power states
system.mem_ctrls_1.memoryStateTime::REF  4961243350000                       # Time in different power states
system.mem_ctrls_1.memoryStateTime::SREF 88323705381497                       # Time in different power states
system.mem_ctrls_1.memoryStateTime::PRE_PDN 14227690122264                       # Time in different power states
system.mem_ctrls_1.memoryStateTime::ACT  20698689212790                       # Time in different power states
system.mem_ctrls_1.memoryStateTime::ACT_PDN 70365135592909                       # Time in different power states
system.mem_ctrls_2.actEnergy             246509499059.382324                       # Energy for activate commands per rank (pJ)
system.mem_ctrls_2.preEnergy             166411549296.461029                       # Energy for precharge commands per rank (pJ)
system.mem_ctrls_2.readEnergy            1659846479393.091797                       # Energy for read commands per rank (pJ)
system.mem_ctrls_2.writeEnergy           8953406000.503904                       # Energy for write commands per rank (pJ)
system.mem_ctrls_2.refreshEnergy         5339089322917.771484                       # Energy for refresh commands per rank (pJ)
system.mem_ctrls_2.actBackEnergy         4660981094229.058594                       # Energy for active background per rank (pJ)
system.mem_ctrls_2.preBackEnergy         187276006809.791077                       # Energy for precharge background per rank (pJ)
system.mem_ctrls_2.actPowerDownEnergy    15946264853248.279297                       # Energy for active power-down per rank (pJ)
system.mem_ctrls_2.prePowerDownEnergy    1031260642357.442261                       # Energy for precharge power-down per rank (pJ)
system.mem_ctrls_2.selfRefreshEnergy     13164837829988.253906                       # Energy for self refresh per rank (pJ)
system.mem_ctrls_2.totalEnergy           42415637505360.710938                       # Total energy per rank (pJ)
system.mem_ctrls_2.averagePower            212.429586                       # Core power per rank (mW)
system.mem_ctrls_2.totalIdleTime         180269440574450                       # Total Idle time Per DRAM Rank
system.mem_ctrls_2.memoryStateTime::IDLE 362506783402                       # Time in different power states
system.mem_ctrls_2.memoryStateTime::REF  4895754150000                       # Time in different power states
system.mem_ctrls_2.memoryStateTime::SREF 90647834090912                       # Time in different power states
system.mem_ctrls_2.memoryStateTime::PRE_PDN 8593838525352                       # Time in different power states
system.mem_ctrls_2.memoryStateTime::ACT  14141459720640                       # Time in different power states
system.mem_ctrls_2.memoryStateTime::ACT_PDN 81027769104694                       # Time in different power states
system.mem_ctrls_3.actEnergy             226553830382.984833                       # Energy for activate commands per rank (pJ)
system.mem_ctrls_3.preEnergy             152940037446.662720                       # Energy for precharge commands per rank (pJ)
system.mem_ctrls_3.readEnergy            1323541183811.584473                       # Energy for read commands per rank (pJ)
system.mem_ctrls_3.writeEnergy           9536203096.384909                       # Energy for write commands per rank (pJ)
system.mem_ctrls_3.refreshEnergy         5614173323080.580078                       # Energy for refresh commands per rank (pJ)
system.mem_ctrls_3.actBackEnergy         4168135818654.293945                       # Energy for active background per rank (pJ)
system.mem_ctrls_3.preBackEnergy         136060629043.792709                       # Energy for precharge background per rank (pJ)
system.mem_ctrls_3.actPowerDownEnergy    16290484303166.115234                       # Energy for active power-down per rank (pJ)
system.mem_ctrls_3.prePowerDownEnergy    1761801779564.386719                       # Energy for precharge power-down per rank (pJ)
system.mem_ctrls_3.selfRefreshEnergy     12343794134512.619141                       # Energy for self refresh per rank (pJ)
system.mem_ctrls_3.totalEnergy           42031281024718.796875                       # Total energy per rank (pJ)
system.mem_ctrls_3.averagePower            210.504619                       # Core power per rank (mW)
system.mem_ctrls_3.totalIdleTime         182511238632274                       # Total Idle time Per DRAM Rank
system.mem_ctrls_3.memoryStateTime::IDLE 241543056524                       # Time in different power states
system.mem_ctrls_3.memoryStateTime::REF  5147996350000                       # Time in different power states
system.mem_ctrls_3.memoryStateTime::SREF 85052705134199                       # Time in different power states
system.mem_ctrls_3.memoryStateTime::PRE_PDN 14681683001515                       # Time in different power states
system.mem_ctrls_3.memoryStateTime::ACT  11768384108854                       # Time in different power states
system.mem_ctrls_3.memoryStateTime::ACT_PDN 82776850723908                       # Time in different power states
system.pwrStateResidencyTicks::UNDEFINED 199669162375000                       # Cumulative time (in ticks) in various power states
system.cpu_voltage_domain.voltage                   1                       # Voltage in Volts
system.cpu_clk_domain.clock                       500                       # Clock period in ticks
system.cpu.dstage2_mmu.stage2_tlb.walker.pwrStateResidencyTicks::UNDEFINED 199669162375000                       # Cumulative time (in ticks) in various power states
system.cpu.dstage2_mmu.stage2_tlb.walker.walks            0                       # Table walker walks requested
system.cpu.dstage2_mmu.stage2_tlb.walker.walkRequestOrigin_Requested::Data            0                       # Table walker requests started/completed, data/inst
system.cpu.dstage2_mmu.stage2_tlb.walker.walkRequestOrigin_Requested::Inst            0                       # Table walker requests started/completed, data/inst
system.cpu.dstage2_mmu.stage2_tlb.walker.walkRequestOrigin_Requested::total            0                       # Table walker requests started/completed, data/inst
system.cpu.dstage2_mmu.stage2_tlb.walker.walkRequestOrigin_Completed::Data            0                       # Table walker requests started/completed, data/inst
system.cpu.dstage2_mmu.stage2_tlb.walker.walkRequestOrigin_Completed::Inst            0                       # Table walker requests started/completed, data/inst
system.cpu.dstage2_mmu.stage2_tlb.walker.walkRequestOrigin_Completed::total            0                       # Table walker requests started/completed, data/inst
system.cpu.dstage2_mmu.stage2_tlb.walker.walkRequestOrigin::total            0                       # Table walker requests started/completed, data/inst
system.cpu.dstage2_mmu.stage2_tlb.inst_hits            0                       # ITB inst hits
system.cpu.dstage2_mmu.stage2_tlb.inst_misses            0                       # ITB inst misses
system.cpu.dstage2_mmu.stage2_tlb.read_hits            0                       # DTB read hits
system.cpu.dstage2_mmu.stage2_tlb.read_misses            0                       # DTB read misses
system.cpu.dstage2_mmu.stage2_tlb.write_hits            0                       # DTB write hits
system.cpu.dstage2_mmu.stage2_tlb.write_misses            0                       # DTB write misses
system.cpu.dstage2_mmu.stage2_tlb.flush_tlb            0                       # Number of times complete TLB was flushed
system.cpu.dstage2_mmu.stage2_tlb.flush_tlb_mva            0                       # Number of times TLB was flushed by MVA
system.cpu.dstage2_mmu.stage2_tlb.flush_tlb_mva_asid            0                       # Number of times TLB was flushed by MVA & ASID
system.cpu.dstage2_mmu.stage2_tlb.flush_tlb_asid            0                       # Number of times TLB was flushed by ASID
system.cpu.dstage2_mmu.stage2_tlb.flush_entries            0                       # Number of entries that have been flushed from TLB
system.cpu.dstage2_mmu.stage2_tlb.align_faults            0                       # Number of TLB faults due to alignment restrictions
system.cpu.dstage2_mmu.stage2_tlb.prefetch_faults            0                       # Number of TLB faults due to prefetch
system.cpu.dstage2_mmu.stage2_tlb.domain_faults            0                       # Number of TLB faults due to domain restrictions
system.cpu.dstage2_mmu.stage2_tlb.perms_faults            0                       # Number of TLB faults due to permissions restrictions
system.cpu.dstage2_mmu.stage2_tlb.read_accesses            0                       # DTB read accesses
system.cpu.dstage2_mmu.stage2_tlb.write_accesses            0                       # DTB write accesses
system.cpu.dstage2_mmu.stage2_tlb.inst_accesses            0                       # ITB inst accesses
system.cpu.dstage2_mmu.stage2_tlb.hits              0                       # DTB hits
system.cpu.dstage2_mmu.stage2_tlb.misses            0                       # DTB misses
system.cpu.dstage2_mmu.stage2_tlb.accesses            0                       # DTB accesses
system.cpu.dtb.walker.pwrStateResidencyTicks::UNDEFINED 199669162375000                       # Cumulative time (in ticks) in various power states
system.cpu.dtb.walker.walks                         0                       # Table walker walks requested
system.cpu.dtb.walker.walkRequestOrigin_Requested::Data            0                       # Table walker requests started/completed, data/inst
system.cpu.dtb.walker.walkRequestOrigin_Requested::Inst            0                       # Table walker requests started/completed, data/inst
system.cpu.dtb.walker.walkRequestOrigin_Requested::total            0                       # Table walker requests started/completed, data/inst
system.cpu.dtb.walker.walkRequestOrigin_Completed::Data            0                       # Table walker requests started/completed, data/inst
system.cpu.dtb.walker.walkRequestOrigin_Completed::Inst            0                       # Table walker requests started/completed, data/inst
system.cpu.dtb.walker.walkRequestOrigin_Completed::total            0                       # Table walker requests started/completed, data/inst
system.cpu.dtb.walker.walkRequestOrigin::total            0                       # Table walker requests started/completed, data/inst
system.cpu.dtb.inst_hits                            0                       # ITB inst hits
system.cpu.dtb.inst_misses                          0                       # ITB inst misses
system.cpu.dtb.read_hits                            0                       # DTB read hits
system.cpu.dtb.read_misses                          0                       # DTB read misses
system.cpu.dtb.write_hits                           0                       # DTB write hits
system.cpu.dtb.write_misses                         0                       # DTB write misses
system.cpu.dtb.flush_tlb                            0                       # Number of times complete TLB was flushed
system.cpu.dtb.flush_tlb_mva                        0                       # Number of times TLB was flushed by MVA
system.cpu.dtb.flush_tlb_mva_asid                   0                       # Number of times TLB was flushed by MVA & ASID
system.cpu.dtb.flush_tlb_asid                       0                       # Number of times TLB was flushed by ASID
system.cpu.dtb.flush_entries                        0                       # Number of entries that have been flushed from TLB
system.cpu.dtb.align_faults                         0                       # Number of TLB faults due to alignment restrictions
system.cpu.dtb.prefetch_faults                      0                       # Number of TLB faults due to prefetch
system.cpu.dtb.domain_faults                        0                       # Number of TLB faults due to domain restrictions
system.cpu.dtb.perms_faults                         0                       # Number of TLB faults due to permissions restrictions
system.cpu.dtb.read_accesses                        0                       # DTB read accesses
system.cpu.dtb.write_accesses                       0                       # DTB write accesses
system.cpu.dtb.inst_accesses                        0                       # ITB inst accesses
system.cpu.dtb.hits                                 0                       # DTB hits
system.cpu.dtb.misses                               0                       # DTB misses
system.cpu.dtb.accesses                             0                       # DTB accesses
system.cpu.istage2_mmu.stage2_tlb.walker.pwrStateResidencyTicks::UNDEFINED 199669162375000                       # Cumulative time (in ticks) in various power states
system.cpu.istage2_mmu.stage2_tlb.walker.walks            0                       # Table walker walks requested
system.cpu.istage2_mmu.stage2_tlb.walker.walkRequestOrigin_Requested::Data            0                       # Table walker requests started/completed, data/inst
system.cpu.istage2_mmu.stage2_tlb.walker.walkRequestOrigin_Requested::Inst            0                       # Table walker requests started/completed, data/inst
system.cpu.istage2_mmu.stage2_tlb.walker.walkRequestOrigin_Requested::total            0                       # Table walker requests started/completed, data/inst
system.cpu.istage2_mmu.stage2_tlb.walker.walkRequestOrigin_Completed::Data            0                       # Table walker requests started/completed, data/inst
system.cpu.istage2_mmu.stage2_tlb.walker.walkRequestOrigin_Completed::Inst            0                       # Table walker requests started/completed, data/inst
system.cpu.istage2_mmu.stage2_tlb.walker.walkRequestOrigin_Completed::total            0                       # Table walker requests started/completed, data/inst
system.cpu.istage2_mmu.stage2_tlb.walker.walkRequestOrigin::total            0                       # Table walker requests started/completed, data/inst
system.cpu.istage2_mmu.stage2_tlb.inst_hits            0                       # ITB inst hits
system.cpu.istage2_mmu.stage2_tlb.inst_misses            0                       # ITB inst misses
system.cpu.istage2_mmu.stage2_tlb.read_hits            0                       # DTB read hits
system.cpu.istage2_mmu.stage2_tlb.read_misses            0                       # DTB read misses
system.cpu.istage2_mmu.stage2_tlb.write_hits            0                       # DTB write hits
system.cpu.istage2_mmu.stage2_tlb.write_misses            0                       # DTB write misses
system.cpu.istage2_mmu.stage2_tlb.flush_tlb            0                       # Number of times complete TLB was flushed
system.cpu.istage2_mmu.stage2_tlb.flush_tlb_mva            0                       # Number of times TLB was flushed by MVA
system.cpu.istage2_mmu.stage2_tlb.flush_tlb_mva_asid            0                       # Number of times TLB was flushed by MVA & ASID
system.cpu.istage2_mmu.stage2_tlb.flush_tlb_asid            0                       # Number of times TLB was flushed by ASID
system.cpu.istage2_mmu.stage2_tlb.flush_entries            0                       # Number of entries that have been flushed from TLB
system.cpu.istage2_mmu.stage2_tlb.align_faults            0                       # Number of TLB faults due to alignment restrictions
system.cpu.istage2_mmu.stage2_tlb.prefetch_faults            0                       # Number of TLB faults due to prefetch
system.cpu.istage2_mmu.stage2_tlb.domain_faults            0                       # Number of TLB faults due to domain restrictions
system.cpu.istage2_mmu.stage2_tlb.perms_faults            0                       # Number of TLB faults due to permissions restrictions
system.cpu.istage2_mmu.stage2_tlb.read_accesses            0                       # DTB read accesses
system.cpu.istage2_mmu.stage2_tlb.write_accesses            0                       # DTB write accesses
system.cpu.istage2_mmu.stage2_tlb.inst_accesses            0                       # ITB inst accesses
system.cpu.istage2_mmu.stage2_tlb.hits              0                       # DTB hits
system.cpu.istage2_mmu.stage2_tlb.misses            0                       # DTB misses
system.cpu.istage2_mmu.stage2_tlb.accesses            0                       # DTB accesses
system.cpu.itb.walker.pwrStateResidencyTicks::UNDEFINED 199669162375000                       # Cumulative time (in ticks) in various power states
system.cpu.itb.walker.walks                         0                       # Table walker walks requested
system.cpu.itb.walker.walkRequestOrigin_Requested::Data            0                       # Table walker requests started/completed, data/inst
system.cpu.itb.walker.walkRequestOrigin_Requested::Inst            0                       # Table walker requests started/completed, data/inst
system.cpu.itb.walker.walkRequestOrigin_Requested::total            0                       # Table walker requests started/completed, data/inst
system.cpu.itb.walker.walkRequestOrigin_Completed::Data            0                       # Table walker requests started/completed, data/inst
system.cpu.itb.walker.walkRequestOrigin_Completed::Inst            0                       # Table walker requests started/completed, data/inst
system.cpu.itb.walker.walkRequestOrigin_Completed::total            0                       # Table walker requests started/completed, data/inst
system.cpu.itb.walker.walkRequestOrigin::total            0                       # Table walker requests started/completed, data/inst
system.cpu.itb.inst_hits                            0                       # ITB inst hits
system.cpu.itb.inst_misses                          0                       # ITB inst misses
system.cpu.itb.read_hits                            0                       # DTB read hits
system.cpu.itb.read_misses                          0                       # DTB read misses
system.cpu.itb.write_hits                           0                       # DTB write hits
system.cpu.itb.write_misses                         0                       # DTB write misses
system.cpu.itb.flush_tlb                            0                       # Number of times complete TLB was flushed
system.cpu.itb.flush_tlb_mva                        0                       # Number of times TLB was flushed by MVA
system.cpu.itb.flush_tlb_mva_asid                   0                       # Number of times TLB was flushed by MVA & ASID
system.cpu.itb.flush_tlb_asid                       0                       # Number of times TLB was flushed by ASID
system.cpu.itb.flush_entries                        0                       # Number of entries that have been flushed from TLB
system.cpu.itb.align_faults                         0                       # Number of TLB faults due to alignment restrictions
system.cpu.itb.prefetch_faults                      0                       # Number of TLB faults due to prefetch
system.cpu.itb.domain_faults                        0                       # Number of TLB faults due to domain restrictions
system.cpu.itb.perms_faults                         0                       # Number of TLB faults due to permissions restrictions
system.cpu.itb.read_accesses                        0                       # DTB read accesses
system.cpu.itb.write_accesses                       0                       # DTB write accesses
system.cpu.itb.inst_accesses                        0                       # ITB inst accesses
system.cpu.itb.hits                                 0                       # DTB hits
system.cpu.itb.misses                               0                       # DTB misses
system.cpu.itb.accesses                             0                       # DTB accesses
system.cpu.workload.numSyscalls                   307                       # Number of system calls
system.cpu.pwrStateResidencyTicks::ON    199669162375000                       # Cumulative time (in ticks) in various power states
system.cpu.numCycles                     399338324750                       # number of cpu cycles simulated
system.cpu.numWorkItemsStarted                      0                       # number of work items this cpu started
system.cpu.numWorkItemsCompleted                    0                       # number of work items this cpu completed
system.cpu.committedInsts                  3181766239                       # Number of instructions committed
system.cpu.committedOps                    3402298039                       # Number of ops (including micro ops) committed
system.cpu.num_int_alu_accesses            2698480811                       # Number of integer alu accesses
system.cpu.num_cus_alu_accesses            2698480811                       # Number of custom alu accesses
system.cpu.num_fp_alu_accesses                      0                       # Number of float alu accesses
system.cpu.num_vec_alu_accesses             753186557                       # Number of vector alu accesses
system.cpu.num_func_calls                   155417664                       # number of times a function call or return occured
system.cpu.num_conditional_control_insts    334334977                       # number of instructions that are conditional controls
system.cpu.num_int_insts                   2698480811                       # number of integer instructions
system.cpu.num_fp_insts                             0                       # number of float instructions
system.cpu.num_vec_insts                    753186557                       # number of vector instructions
system.cpu.num_int_register_reads          5433059270                       # number of times the integer registers were read
system.cpu.num_int_register_writes         2376553912                       # number of times the integer registers were written
system.cpu.num_fp_register_reads                    0                       # number of times the floating registers were read
system.cpu.num_fp_register_writes                   0                       # number of times the floating registers were written
system.cpu.num_vec_register_reads           712767265                       # number of times the vector registers were read
system.cpu.num_vec_register_writes          544229330                       # number of times the vector registers were written
system.cpu.num_cc_register_reads           1292702997                       # number of times the CC registers were read
system.cpu.num_cc_register_writes          1312339884                       # number of times the CC registers were written
system.cpu.num_mem_refs                     713843924                       # number of memory refs
system.cpu.num_load_insts                   416623491                       # Number of load instructions
system.cpu.num_store_insts                  297220433                       # Number of store instructions
system.cpu.num_idle_cycles                          0                       # Number of idle cycles
system.cpu.num_busy_cycles               399338324750                       # Number of busy cycles
system.cpu.not_idle_fraction                        1                       # Percentage of non-idle cycles
system.cpu.idle_fraction                            0                       # Percentage of idle cycles
system.cpu.Branches                         504612134                       # Number of branches fetched
system.cpu.op_class::No_OpClass                 61185      0.00%      0.00% # Class of executed instruction
system.cpu.op_class::IntAlu                2205059032     64.81%     64.81% # Class of executed instruction
system.cpu.op_class::IntMult                   715634      0.02%     64.83% # Class of executed instruction
system.cpu.op_class::IntDiv                     98831      0.00%     64.84% # Class of executed instruction
system.cpu.op_class::FloatAdd                26290018      0.77%     65.61% # Class of executed instruction
system.cpu.op_class::FloatCmp                45933003      1.35%     66.96% # Class of executed instruction
system.cpu.op_class::FloatCvt                73643563      2.16%     69.12% # Class of executed instruction
system.cpu.op_class::FloatMult               42121784      1.24%     70.36% # Class of executed instruction
system.cpu.op_class::FloatMultAcc             9034496      0.27%     70.63% # Class of executed instruction
system.cpu.op_class::FloatDiv                 8689884      0.26%     70.88% # Class of executed instruction
system.cpu.op_class::FloatMisc               76163684      2.24%     73.12% # Class of executed instruction
system.cpu.op_class::FloatSqrt                8652845      0.25%     73.38% # Class of executed instruction
system.cpu.op_class::SimdAdd                 43137161      1.27%     74.64% # Class of executed instruction
system.cpu.op_class::SimdAddAcc                     0      0.00%     74.64% # Class of executed instruction
system.cpu.op_class::SimdAlu                 45389985      1.33%     75.98% # Class of executed instruction
system.cpu.op_class::SimdCmp                     1384      0.00%     75.98% # Class of executed instruction
system.cpu.op_class::SimdCvt                     6342      0.00%     75.98% # Class of executed instruction
system.cpu.op_class::SimdMisc                75227861      2.21%     78.19% # Class of executed instruction
system.cpu.op_class::SimdMult                       0      0.00%     78.19% # Class of executed instruction
system.cpu.op_class::SimdMultAcc                    0      0.00%     78.19% # Class of executed instruction
system.cpu.op_class::SimdShift                  50088      0.00%     78.19% # Class of executed instruction
system.cpu.op_class::SimdShiftAcc                   0      0.00%     78.19% # Class of executed instruction
system.cpu.op_class::SimdSqrt                       0      0.00%     78.19% # Class of executed instruction
system.cpu.op_class::SimdFloatAdd             1496087      0.04%     78.23% # Class of executed instruction
system.cpu.op_class::SimdFloatAlu             2162304      0.06%     78.30% # Class of executed instruction
system.cpu.op_class::SimdFloatCmp             2649030      0.08%     78.38% # Class of executed instruction
system.cpu.op_class::SimdFloatCvt                   0      0.00%     78.38% # Class of executed instruction
system.cpu.op_class::SimdFloatDiv                6336      0.00%     78.38% # Class of executed instruction
system.cpu.op_class::SimdFloatMisc                  0      0.00%     78.38% # Class of executed instruction
system.cpu.op_class::SimdFloatMult             129801      0.00%     78.38% # Class of executed instruction
system.cpu.op_class::SimdFloatMultAcc        21734088      0.64%     79.02% # Class of executed instruction
system.cpu.op_class::SimdFloatSqrt                  0      0.00%     79.02% # Class of executed instruction
system.cpu.op_class::SimdAes                        0      0.00%     79.02% # Class of executed instruction
system.cpu.op_class::SimdAesMix                     0      0.00%     79.02% # Class of executed instruction
system.cpu.op_class::SimdSha1Hash                   0      0.00%     79.02% # Class of executed instruction
system.cpu.op_class::SimdSha1Hash2                  0      0.00%     79.02% # Class of executed instruction
system.cpu.op_class::SimdSha256Hash                 0      0.00%     79.02% # Class of executed instruction
system.cpu.op_class::SimdSha256Hash2                0      0.00%     79.02% # Class of executed instruction
system.cpu.op_class::SimdShaSigma2                  0      0.00%     79.02% # Class of executed instruction
system.cpu.op_class::SimdShaSigma3                  0      0.00%     79.02% # Class of executed instruction
system.cpu.op_class::MemRead                416623491     12.25%     91.26% # Class of executed instruction
system.cpu.op_class::MemWrite               297220433      8.74%    100.00% # Class of executed instruction
system.cpu.op_class::FloatMemRead                   0      0.00%    100.00% # Class of executed instruction
system.cpu.op_class::FloatMemWrite                  0      0.00%    100.00% # Class of executed instruction
system.cpu.op_class::IprAccess                      0      0.00%    100.00% # Class of executed instruction
system.cpu.op_class::InstPrefetch                   0      0.00%    100.00% # Class of executed instruction
system.cpu.op_class::CusAlu                         0      0.00%    100.00% # Class of executed instruction
system.cpu.op_class::total                 3402298350                       # Class of executed instruction
system.membus.snoop_filter.tot_requests             0                       # Total number of requests made to the snoop filter.
system.membus.snoop_filter.hit_single_requests            0                       # Number of requests hitting in the snoop filter with a single holder of the requested data.
system.membus.snoop_filter.hit_multi_requests            0                       # Number of requests hitting in the snoop filter with multiple (>1) holders of the requested data.
system.membus.snoop_filter.tot_snoops               0                       # Total number of snoops made to the snoop filter.
system.membus.snoop_filter.hit_single_snoops            0                       # Number of snoops hitting in the snoop filter with a single holder of the requested data.
system.membus.snoop_filter.hit_multi_snoops            0                       # Number of snoops hitting in the snoop filter with multiple (>1) holders of the requested data.
system.membus.pwrStateResidencyTicks::UNDEFINED 199669162375000                       # Cumulative time (in ticks) in various power states
system.membus.trans_dist::ReadReq          3581994107                       # Transaction distribution
system.membus.trans_dist::ReadResp         3599363629                       # Transaction distribution
system.membus.trans_dist::WriteReq          279982730                       # Transaction distribution
system.membus.trans_dist::WriteResp         279982730                       # Transaction distribution
system.membus.trans_dist::SoftPFReq               499                       # Transaction distribution
system.membus.trans_dist::SoftPFResp              499                       # Transaction distribution
system.membus.trans_dist::LoadLockedReq      17369523                       # Transaction distribution
system.membus.trans_dist::StoreCondReq       17369523                       # Transaction distribution
system.membus.trans_dist::StoreCondResp      17369523                       # Transaction distribution
system.membus.pkt_count_system.cpu.icache_port::system.mem_ctrls.port   6363533101                       # Packet count per connected master and slave (bytes)
system.membus.pkt_count_system.cpu.dcache_port::system.mem_ctrls.port   1429899662                       # Packet count per connected master and slave (bytes)
system.membus.pkt_count::total             7793432763                       # Packet count per connected master and slave (bytes)
system.membus.pkt_size_system.cpu.icache_port::system.mem_ctrls.port  12727066200                       # Cumulative packet size per connected master and slave (bytes)
system.membus.pkt_size_system.cpu.dcache_port::system.mem_ctrls.port   5192122666                       # Cumulative packet size per connected master and slave (bytes)
system.membus.pkt_size::total             17919188866                       # Cumulative packet size per connected master and slave (bytes)
system.membus.snoops                                0                       # Total snoops (count)
system.membus.snoopTraffic                          0                       # Total snoop traffic (bytes)
system.membus.snoop_fanout::samples        3896716382                       # Request fanout histogram
system.membus.snoop_fanout::mean                    0                       # Request fanout histogram
system.membus.snoop_fanout::stdev                   0                       # Request fanout histogram
system.membus.snoop_fanout::underflows              0      0.00%      0.00% # Request fanout histogram
system.membus.snoop_fanout::0              3896716382    100.00%    100.00% # Request fanout histogram
system.membus.snoop_fanout::1                       0      0.00%    100.00% # Request fanout histogram
system.membus.snoop_fanout::overflows               0      0.00%    100.00% # Request fanout histogram
system.membus.snoop_fanout::min_value               0                       # Request fanout histogram
system.membus.snoop_fanout::max_value               0                       # Request fanout histogram
system.membus.snoop_fanout::total          3896716382                       # Request fanout histogram
system.membus.reqLayer0.occupancy        3011706809875                       # Layer occupancy (ticks)
system.membus.reqLayer0.utilization               1.5                       # Layer utilization (%)
system.membus.respLayer1.occupancy       4821118252571                       # Layer occupancy (ticks)
system.membus.respLayer1.utilization              2.4                       # Layer utilization (%)
system.membus.respLayer2.occupancy       803903908360                       # Layer occupancy (ticks)
system.membus.respLayer2.utilization              0.4                       # Layer utilization (%)

---------- End Simulation Statistics   ----------
